geometry optimzed in LAMMPS
_audit_creation_date              2020-11-30 
_audit_creation_method            'lammps2cif' 
_symmetry_space_group_name_H-M    'P1' 
_symmetry_Int_Tables_number       1 
_symmetry_cell_setting            triclinic 
loop_ 
_symmetry_equiv_pos_as_xyz 
  x,y,z 
_cell_length_a                    22.82012824 
_cell_length_b                    34.179755970008486 
_cell_length_c                    24.041887146368634 
_cell_angle_alpha                 89.24192186636046 
_cell_angle_beta                  80.43517525141066 
_cell_angle_gamma                 89.96232305963086 
loop_ 
_atom_site_label 
_atom_site_type_symbol 
_atom_site_fract_x 
_atom_site_fract_y 
_atom_site_fract_z 
_atom_site_charge 
C1          C  0.07717479  0.20313555  0.01616123     0.00300
C2          C  0.43717095  0.27596918  0.98561931     0.00300
O3          O  0.26734898  0.33167508  0.19386234    -0.78100
O4          O  0.28250299  0.15641266  0.20980908    -0.62800
O5          O  0.22072149  0.25969642  0.23062864    -1.09400
C6          C  0.34580753  0.26485517  0.36975665     1.08800
O7          O  0.26518487  0.14525494  0.30195756    -0.76000
O8          O  0.22729709  0.20187421  0.37719511    -0.63600
Ni9        Ni  0.21736760  0.29340225  0.16786159     1.34900
C10         C  0.19555370  0.23258264  0.38014748     0.87500
O11         O  0.20394873  0.19756655  0.16017900    -0.76600
O12         O  0.16855087  0.25643775  0.13778231    -0.86800
C13         C  0.27908991  0.13300137  0.25172102     0.87100
O14         O  0.28503545  0.27589321  0.11748292    -0.65000
O15         O  0.34151428  0.22756519  0.37123640    -0.84300
C16         C  0.32321924  0.24942599  0.12067251     0.87900
C17         C  0.17244411  0.21930978  0.13298897     1.09500
H18         H  0.34028005  0.22481394  0.25389589     0.41300
O19         O  0.29946839  0.22244381  0.27240533    -1.07000
O20         O  0.20718522  0.26193897  0.34654285    -0.63600
Ni21       Ni  0.27021709  0.27459645  0.28376279     1.26300
O22         O  0.31727299  0.22350932  0.15949037    -0.63900
O23         O  0.32127387  0.28702597  0.33709431    -0.76200
C24         C  0.25187284  0.34845841  0.24045591     0.87300
O25         O  0.24226774  0.32818596  0.28610640    -0.63300
Ni26       Ni  0.30227253  0.18816220  0.33443276     1.27400
Ni27       Ni  0.25179504  0.20857182  0.21716807     1.26100
H28         H  0.18038815  0.25694899  0.25034483     0.41800
C29         C  0.32877194  0.02552296  0.27237265     0.00300
C30         C  0.18304008  0.45190105  0.26426765     0.00300
O31         O  0.02701049  0.08215645  0.05634909    -0.78100
O32         O  0.48262761  0.40368215  0.05661956    -0.62800
O33         O  0.05647626  0.00351475  0.03147342    -1.09400
C34         C  0.42711887  0.01026918  0.38838638     1.08800
O35         O  0.50813816  0.39543520  0.46633486    -0.76000
O36         O  0.03382623  0.45588052  0.39400346    -0.63600
Ni37       Ni  0.06055138  0.03820255  0.09196735     1.34900
C38         C  0.06842952  0.48499547  0.39374008     0.87500
O39         O  0.06475218  0.43855434  0.11288945    -0.76600
O40         O  0.08941234  0.49774233  0.14216030    -0.86800
C41         C  0.48703651  0.38117533  0.01440940     0.87100
O42         O  0.47288543  0.02983429  0.13001033    -0.65000
O43         O  0.42303235  0.47304972  0.39553587    -0.84300
C44         C  0.43700413  0.00125926  0.13203124     0.87900
C45         C  0.09068084  0.46034276  0.14403342     1.09500
H46         H  0.42251603  0.47223456  0.01137988     0.41300
O47         O  0.46936346  0.47060517  0.49246522    -1.07000
O48         O  0.05819340  0.51322718  0.42800408    -0.63600
Ni49       Ni  0.99216003  0.02181750  0.47169607     1.26300
O50         O  0.44803757  0.47098234  0.10618157    -0.63900
O51         O  0.45701710  0.03221913  0.41591304    -0.76200
C52         C  0.03816382  0.09321269  0.00479320     0.87300
O53         O  0.02223725  0.07387954  0.46146426    -0.63300
Ni54       Ni  0.46599144  0.43539464  0.43266061     1.27400
Ni55       Ni  0.01550279  0.45171567  0.05780087     1.26100
H56         H  0.08959350  0.49850535  0.02384359     0.41800
C57         C  0.12332408  0.48528702  0.35114070    -0.13700
C58         C  0.12881155  0.45950652  0.30857425    -0.28800
H59         H  0.15871283  0.50568586  0.35531620     0.15400
H60         H  0.09119341  0.44057227  0.30552021     0.15900
C61         C  0.12117739  0.44167970  0.18721807    -0.13700
C62         C  0.16517454  0.46050912  0.20701903    -0.28800
H63         H  0.10299359  0.41465888  0.20727055     0.15400
H64         H  0.18416032  0.48636362  0.18381901     0.15900
C65         C  0.27558502  0.49950889  0.26950785    -0.10500
C66         C  0.23382377  0.47782235  0.26920650    -0.12100
C67         C  0.39601379  0.02889965  0.34575990    -0.13700
C68         C  0.35401849  0.00992944  0.32312372    -0.28800
H69         H  0.40997099  0.05805834  0.33055571     0.15400
H70         H  0.33922435  0.98135966  0.34056150     0.15900
C71         C  0.37908210  0.02527635  0.22151137    -0.13700
C72         C  0.38380947  0.00080560  0.17709535    -0.28800
H73         H  0.41511415  0.04579114  0.22325794     0.15400
H74         H  0.35006133  0.47715048  0.17993232     0.15900
C75         C  0.20020606  0.40928531  0.27221083    -0.13700
C76         C  0.24429732  0.39134061  0.23852581    -0.28800
H77         H  0.17382358  0.39187574  0.30555306     0.15400
H78         H  0.26934814  0.40758511  0.20324806     0.15900
C79         C  0.29115005  0.09081983  0.24194435    -0.13700
C80         C  0.30573228  0.06713136  0.28293545    -0.28800
H81         H  0.29384551  0.07987609  0.19937544     0.15400
H82         H  0.30509884  0.07916657  0.32468152     0.15900
C83         C  0.41865200  0.26324137  0.43499334    -0.13700
C84         C  0.37826750  0.28324799  0.41073800    -0.28800
H85         H  0.43284153  0.23459471  0.41865278     0.15400
H86         H  0.36525007  0.31255817  0.42471997     0.15900
C87         C  0.38426680  0.27442599  0.03340493    -0.13700
C88         C  0.37704185  0.24875713  0.07718156    -0.28800
H89         H  0.34910664  0.29542281  0.03021002     0.15400
H90         H  0.41031197  0.22664856  0.08107970     0.15900
C91         C  0.47314436  0.33904459  0.02207323    -0.13700
C92         C  0.46094694  0.31754325  0.97855492    -0.28800
H93         H  0.46760738  0.32634593  0.06428748     0.15400
H94         H  0.46448461  0.33129638  0.93707549     0.15900
C95         C  0.48616107  0.24982886  0.99574180    -0.10500
C96         C  0.02578602  0.22719562  0.00749455    -0.12100
C97         C  0.12348440  0.20280109  0.45793605    -0.13700
C98         C  0.14402589  0.23475193  0.42682243    -0.28800
H99         H  0.14287899  0.17449002  0.44567166     0.15400
H100        H  0.12416403  0.26316615  0.43725500     0.15900
C101        C  0.14184018  0.20063640  0.09106072    -0.13700
C102        C  0.10107826  0.21967103  0.06627676    -0.28800
H103        H  0.15583650  0.17138938  0.07753948     0.15400
H104        H  0.08620264  0.24846916  0.08150742     0.15900
C105        C  0.04726748  0.13526740  0.99050302    -0.13700
C106        C  0.05561524  0.16139079  0.02988705    -0.28800
H107        H  0.05267939  0.14430614  0.94644744     0.15400
H108        H  0.05323941  0.15146360  0.56839189     0.15700
C109        C  0.07588102  0.20390647  0.51083657     0.00300
C110        C  0.43997674  0.27698259  0.48814344     0.00300
O111        O  0.26338094  0.33125239  0.69429617    -0.78100
O112        O  0.27905604  0.15658847  0.70796235    -0.62800
O113        O  0.21661472  0.25923167  0.72749351    -1.09400
C114        C  0.33980145  0.26416709  0.86927821     1.08800
O115        O  0.25986354  0.14528461  0.80019803    -0.76000
O116        O  0.22385110  0.20134879  0.87687926    -0.63600
Ni117      Ni  0.21570410  0.29330026  0.66491460     1.34900
C118        C  0.18856815  0.23020677  0.87760745     0.87500
O119        O  0.20278160  0.19731928  0.65556744    -0.76600
O120        O  0.16953595  0.25641863  0.63157271    -0.86800
C121        C  0.27338085  0.13313881  0.74985405     0.87100
O122        O  0.28552314  0.27674050  0.61696967    -0.65000
O123        O  0.33853745  0.22681681  0.86854078    -0.84300
C124        C  0.32314804  0.25004117  0.62069989     0.87900
C125        C  0.17303317  0.21927517  0.62687163     1.09500
H126        H  0.33506992  0.22559705  0.75339501     0.41300
O127        O  0.29417641  0.22235566  0.77122008    -1.07000
O128        O  0.19792986  0.25917730  0.84296924    -0.63600
Ni129      Ni  0.26316254  0.27387875  0.78327107     1.26300
O130        O  0.31545228  0.22344600  0.65851404    -0.63900
O131        O  0.31179766  0.28621366  0.83916442    -0.76200
C132        C  0.24558443  0.34763705  0.74077551     0.87300
O133        O  0.23379987  0.32709598  0.78603496    -0.63300
Ni134      Ni  0.29806926  0.18772877  0.83250453     1.27400
Ni135      Ni  0.24844258  0.20842115  0.71443390     1.26100
H136        H  0.17571456  0.25622134  0.74558374     0.41800
C137        C  0.32401028  0.02626054  0.76439788     0.00300
C138        C  0.17933618  0.45167588  0.75700678     0.00300
O139        O  0.00713223  0.08600674  0.55276416    -0.78100
O140        O  0.48576714  0.40474349  0.55789958    -0.62800
O141        O  0.04049804  0.00850741  0.52700961    -1.09400
C142        C  0.42150338  0.00974797  0.87992190     1.08800
O143        O  0.50301329  0.39477648  0.96488528    -0.76000
O144        O  0.03064811  0.44583052  0.89241317    -0.63600
Ni145      Ni  0.04619774  0.04390713  0.58612914     1.34900
C146        C  0.07121315  0.47079690  0.89464362     0.87500
O147        O  0.05710072  0.44138313  0.60950378    -0.76600
O148        O  0.09423933  0.49860435  0.63372158    -0.86800
C149        C  0.49084375  0.38211137  0.51585040     0.87100
O150        O  0.47887170  0.03055056  0.63432724    -0.65000
O151        O  0.41529380  0.47179824  0.89567151    -0.84300
C152        C  0.44688581  0.99995419  0.63791471     0.87900
C153        C  0.08975259  0.46132568  0.63692475     1.09500
H154        H  0.42863122  0.47410493  0.51049974     0.41300
O155        O  0.46298237  0.46943102  0.99225743    -1.07000
O156        O  0.06672374  0.49797412  0.93036041    -0.63600
Ni157      Ni  0.00804607  0.01772566  0.97652091     1.26300
O158        O  0.45025865  0.47174338  0.60635016    -0.63900
O159        O  0.44676858  0.03224222  0.91072020    -0.76200
C160        C  0.01979112  0.09765253  0.50173489     0.87300
O161        O  0.04126056  0.06888559  0.96510944    -0.63300
Ni162      Ni  0.45937260  0.43436780  0.93223857     1.27400
Ni163      Ni  0.00954421  0.45614538  0.55338365     1.26100
H164        H  0.08199750  0.50448193  0.52205454     0.41800
C165        C  0.12670543  0.46725084  0.85449794    -0.13700
C166        C  0.12556375  0.46389165  0.79918633    -0.28800
H167        H  0.16840443  0.46560312  0.87058056     0.15400
H168        H  0.08317302  0.46789267  0.78473252     0.15900
C169        C  0.12031823  0.44089956  0.67846167    -0.13700
C170        C  0.16543301  0.45849822  0.69790578    -0.28800
H171        H  0.09914121  0.41523205  0.70016804     0.15400
H172        H  0.18722250  0.48305058  0.67343652     0.15900
C173        C  0.27275108  0.49783449  0.76401982    -0.10500
C174        C  0.23078946  0.47677092  0.76207976    -0.12100
C175        C  0.39138728  0.02810207  0.83675900    -0.13700
C176        C  0.35036692  0.00897389  0.81320109    -0.28800
H177        H  0.40424547  0.05771856  0.82289219     0.15400
H178        H  0.33637081  0.97989057  0.82907383     0.15900
C179        C  0.37255840  0.02853253  0.71257522    -0.13700
C180        C  0.39501354  0.99699037  0.68358431    -0.28800
H181        H  0.39112080  0.05714537  0.69943891     0.15400
H182        H  0.35027067  0.47717908  0.67647392     0.15900
C183        C  0.19321691  0.40904962  0.76862375    -0.13700
C184        C  0.23931470  0.39044019  0.73882394    -0.28800
H185        H  0.16320276  0.39257064  0.80038111     0.15400
H186        H  0.26771949  0.40630894  0.70521333     0.15900
C187        C  0.28280977  0.09108460  0.73948360    -0.13700
C188        C  0.29949297  0.06697105  0.77877234    -0.28800
H189        H  0.28374352  0.08072679  0.69680100     0.15400
H190        H  0.30045762  0.07820233  0.82072867     0.15900
C191        C  0.41479079  0.26268547  0.93266489    -0.13700
C192        C  0.37315988  0.28256488  0.90976310    -0.28800
H193        H  0.42924032  0.23430663  0.91548444     0.15400
H194        H  0.35986405  0.31163972  0.92460924     0.15900
C195        C  0.38643886  0.27563964  0.53520910    -0.13700
C196        C  0.37825797  0.24986975  0.57887947    -0.28800
H197        H  0.35135346  0.29651218  0.53113841     0.15400
H198        H  0.41137787  0.22781247  0.58354067     0.15900
C199        C  0.47604924  0.34015752  0.52394271    -0.13700
C200        C  0.46388625  0.31850592  0.48064702    -0.28800
H201        H  0.46993972  0.32771483  0.56633159     0.15400
H202        H  0.46797930  0.33202140  0.43896674     0.15900
C203        C  0.48852617  0.25097570  0.49940561    -0.10500
C204        C  0.02584453  0.22925459  0.50226484    -0.12100
C205        C  0.12803001  0.20413005  0.96568876    -0.13700
C206        C  0.13445491  0.23010758  0.92186009    -0.28800
H207        H  0.16364881  0.18332605  0.96795034     0.15400
H208        H  0.10136568  0.25266348  0.91977699     0.15900
C209        C  0.14324998  0.20098776  0.58385604    -0.13700
C210        C  0.10281030  0.22051416  0.55918532    -0.28800
H211        H  0.15629913  0.17152714  0.57060934     0.15400
H212        H  0.08894539  0.24949664  0.57437898     0.15900
C213        C  0.03223602  0.13939540  0.48872234    -0.13700
C214        C  0.05157513  0.16299542  0.52630108    -0.28800
H215        H  0.03224694  0.14984885  0.44583802     0.15400
H216        H  0.05148001  0.15130190  0.07346952     0.15700
C217        C  0.08175411  0.69957311  0.02000362     0.00300
C218        C  0.44310199  0.77413495  0.98075128     0.00300
O219        O  0.27796497  0.83124644  0.18771597    -0.78100
O220        O  0.29144875  0.65638237  0.20921369    -0.62800
O221        O  0.23102081  0.75996632  0.22626570    -1.09400
C222        C  0.35063680  0.76597623  0.36955118     1.08800
O223        O  0.27138787  0.64627338  0.30142451    -0.76000
O224        O  0.23282354  0.70429410  0.37295605    -0.63600
Ni225      Ni  0.22739894  0.79275701  0.16307938     1.34900
C226        C  0.20016788  0.73446291  0.37340638     0.87500
O227        O  0.21407721  0.69683261  0.15828592    -0.76600
O228        O  0.17800328  0.75526617  0.13485561    -0.86800
C229        C  0.28514644  0.63334712  0.25160460     0.87100
O230        O  0.29441161  0.77404057  0.11359298    -0.65000
O231        O  0.34661988  0.72873243  0.37070738    -0.84300
C232        C  0.33291168  0.74796542  0.11769607     0.87900
C233        C  0.18166520  0.71803150  0.13146373     1.09500
H234        H  0.34931339  0.72504205  0.25268235     0.41300
O235        O  0.30822321  0.72306804  0.27049094    -1.07000
O236        O  0.21302480  0.76368588  0.34004967    -0.63600
Ni237      Ni  0.27904038  0.77546878  0.28009781     1.26300
O238        O  0.32752213  0.72277700  0.15744884    -0.63900
O239        O  0.32755903  0.78815659  0.33574899    -0.76200
C240        C  0.26213510  0.84872426  0.23369227     0.87300
O241        O  0.25194458  0.82916281  0.28000313    -0.63300
Ni242      Ni  0.30839541  0.68935627  0.33352299     1.27400
Ni243      Ni  0.26151891  0.70865217  0.21492122     1.26100
H244        H  0.19043504  0.75730703  0.24533266     0.41800
C245        C  0.32624843  0.52503992  0.27594706     0.00300
C246        C  0.18886637  0.95090137  0.25460042     0.00300
O247        O  0.02135826  0.58111156  0.06395994    -0.78100
O248        O  0.47889667  0.90444067  0.04951128    -0.62800
O249        O  0.04894859  0.50245192  0.04179580    -1.09400
C250        C  0.42516894  0.51029039  0.39051825     1.08800
O251        O  0.50968276  0.89490020  0.46434531    -0.76000
O252        O  0.03613013  0.94962048  0.38334346    -0.63600
Ni253      Ni  0.05418619  0.53766700  0.10097485     1.34900
C254        C  0.06958345  0.97939939  0.38225256     0.87500
O255        O  0.07512452  0.93904359  0.10030982    -0.76600
O256        O  0.09689333  0.99804758  0.13217549    -0.86800
C257        C  0.48566985  0.88134464  0.00785962     0.87100
O258        O  0.47127532  0.53009216  0.13519831    -0.65000
O259        O  0.42471026  0.97306004  0.39385363    -0.84300
C260        C  0.43734918  0.50036840  0.13826469     0.87900
C261        C  0.10001141  0.96065925  0.13235368     1.09500
H262        H  0.42262150  0.97282495  0.00082379     0.41300
O263        O  0.47284423  0.97054478  0.49062513    -1.07000
O264        O  0.05757060  0.00824249  0.41454680    -0.63600
Ni265      Ni  0.99327443  0.52491372  0.48811725     1.26300
O266        O  0.44511106  0.97271472  0.09794944    -0.63900
O267        O  0.45502390  0.53228250  0.41800194    -0.76200
C268        C  0.03387359  0.59158515  0.01224395     0.87300
O269        O  0.02278145  0.57826261  0.48689541    -0.63300
Ni270      Ni  0.46771717  0.93528725  0.43106789     1.27400
Ni271      Ni  0.02419361  0.95229011  0.04705275     1.26100
H272        H  0.09697372  0.00029452  0.01265349     0.41800
C273        C  0.12532084  0.98064614  0.34137844    -0.13700
C274        C  0.13264287  0.95657346  0.29715026    -0.28800
H275        H  0.15983958  0.00109828  0.34787816     0.15400
H276        H  0.09577010  0.93756147  0.29185126     0.15900
C277        C  0.13090999  0.94144648  0.17476896    -0.13700
C278        C  0.17335806  0.96035418  0.19666448    -0.28800
H279        H  0.11357577  0.91372113  0.19307879     0.15400
H280        H  0.19169839  0.98704241  0.17533695     0.15900
C281        C  0.27832910  0.99983238  0.26557010    -0.10500
C282        C  0.23774190  0.97758382  0.26293303    -0.12100
C283        C  0.39362230  0.52888940  0.34852800    -0.13700
C284        C  0.35082187  0.50997956  0.32712336    -0.28800
H285        H  0.40804913  0.55778916  0.33251461     0.15400
H286        H  0.33548473  0.48173526  0.34544565     0.15900
C287        C  0.37730841  0.52434171  0.22597886    -0.13700
C288        C  0.38326115  0.49955381  0.18213494    -0.28800
H289        H  0.41304990  0.54503835  0.22801674     0.15400
H290        H  0.35008601  0.97872967  0.17513639     0.15900
C291        C  0.20729335  0.90857988  0.26220721    -0.13700
C292        C  0.25351224  0.89144050  0.23044265    -0.28800
H293        H  0.18029791  0.89057047  0.29442706     0.15400
H294        H  0.27952385  0.90788463  0.19593532     0.15900
C295        C  0.29372389  0.59082947  0.24297119    -0.13700
C296        C  0.30386122  0.56679511  0.28536469    -0.28800
H297        H  0.29815392  0.57979792  0.20030062     0.15400
H298        H  0.30156606  0.57884239  0.32731734     0.15900
C299        C  0.41864798  0.76326113  0.43917661    -0.13700
C300        C  0.38109340  0.78404119  0.41227930    -0.28800
H301        H  0.43163979  0.73406537  0.42428943     0.15400
H302        H  0.36924032  0.81380888  0.42481308     0.15900
C303        C  0.39131731  0.77197485  0.02927347    -0.13700
C304        C  0.38621130  0.74711409  0.07388426    -0.28800
H305        H  0.35515167  0.79217808  0.02606770     0.15400
H306        H  0.42052235  0.72582060  0.07816143     0.15900
C307        C  0.47405374  0.83896989  0.01639886    -0.13700
C308        C  0.46500058  0.81616704  0.97295860    -0.28800
H309        H  0.46780421  0.82699903  0.05906277     0.15400
H310        H  0.46885030  0.82920440  0.93099782     0.15900
C311        C  0.49303044  0.74885417  0.99010492    -0.10500
C312        C  0.03145027  0.72437475  0.01046853    -0.12100
C313        C  0.13849051  0.70981621  0.45985253    -0.13700
C314        C  0.14457162  0.73492753  0.41537810    -0.28800
H315        H  0.17629589  0.69143595  0.46479978     0.15400
H316        H  0.10934872  0.75513813  0.40949904     0.15900
C317        C  0.14930618  0.69841164  0.09193901    -0.13700
C318        C  0.10705801  0.71681234  0.06863726    -0.28800
H319        H  0.16302669  0.66901771  0.07889191     0.15400
H320        H  0.09247684  0.74574516  0.08353448     0.15900
C321        C  0.04470517  0.63325268  0.99743602    -0.13700
C322        C  0.05871637  0.65854809  0.03554007    -0.28800
H323        H  0.04728326  0.64247768  0.95366851     0.15400
H324        H  0.09459882  0.64177366  0.46704807     0.15700
C325        C  0.08358762  0.70238664  0.50416060     0.00300
C326        C  0.43991359  0.77741664  0.49211642     0.00300
O327        O  0.24279658  0.83377530  0.70454982    -0.78100
O328        O  0.28009112  0.65335795  0.70680701    -0.62800
O329        O  0.21317768  0.75519242  0.73056688    -1.09400
C330        C  0.34207175  0.75918990  0.86842387     1.08800
O331        O  0.25992790  0.64249143  0.79872917    -0.76000
O332        O  0.22871347  0.69595483  0.87948193    -0.63600
Ni333      Ni  0.20869715  0.79060844  0.66948778     1.34900
C334        C  0.19127187  0.72350092  0.88001653     0.87500
O335        O  0.19899444  0.69216233  0.65913545    -0.76600
O336        O  0.17213646  0.75120408  0.62952187    -0.86800
C337        C  0.27503345  0.63001796  0.74882254     0.87100
O338        O  0.28524092  0.78026864  0.62613839    -0.65000
O339        O  0.34377601  0.72188906  0.86565975    -0.84300
C340        C  0.32094545  0.75160123  0.62487303     0.87900
C341        C  0.17230913  0.71383144  0.62769250     1.09500
H342        H  0.33499345  0.72308587  0.75135827     0.41300
O343        O  0.29467601  0.71884771  0.77027612    -1.07000
O344        O  0.19788970  0.75182417  0.84469874    -0.63600
Ni345      Ni  0.26107595  0.76898260  0.78591866     1.26300
O346        O  0.31079560  0.72164036  0.65697959    -0.63900
O347        O  0.31057499  0.78077293  0.84114949    -0.76200
C348        C  0.23072124  0.84448936  0.75574635     0.87300
O349        O  0.22769955  0.81998747  0.79615549    -0.63300
Ni350      Ni  0.30101120  0.68348110  0.83056100     1.27400
Ni351      Ni  0.24700690  0.70466803  0.71525505     1.26100
H352        H  0.17272480  0.75123164  0.74927703     0.41800
C353        C  0.32213326  0.52343370  0.77320227     0.00300
C354        C  0.18509853  0.95285665  0.74182028     0.00300
O355        O  0.00210108  0.58043452  0.57983842    -0.78100
O356        O  0.49178438  0.90510104  0.55589903    -0.62800
O357        O  0.04174044  0.50747628  0.54163865    -1.09400
C358        C  0.41534556  0.50913148  0.89199089     1.08800
O359        O  0.50290012  0.89434144  0.95817367    -0.76000
O360        O  0.04071102  0.94601991  0.88408805    -0.63600
Ni361      Ni  0.04821332  0.53864386  0.60470107     1.34900
C362        C  0.07780674  0.97379030  0.88302885     0.87500
O363        O  0.05761161  0.94593059  0.59930984    -0.76600
O364        O  0.08697864  0.00536237  0.62374023    -0.86800
C365        C  0.49436626  0.88219279  0.51453237     0.87100
O366        O  0.47140160  0.53100473  0.63621658    -0.65000
O367        O  0.42270077  0.97240316  0.88280755    -0.84300
C368        C  0.43806505  0.50106210  0.63818768     0.87900
C369        C  0.08614913  0.96809702  0.62769501     1.09500
H370        H  0.43257991  0.97402991  0.50989134     0.41300
O371        O  0.46357771  0.96996933  0.98307799    -1.07000
O372        O  0.07126248  0.00150695  0.91815005    -0.63600
Ni373      Ni  0.00219624  0.51643091  0.98526437     1.26300
O374        O  0.45845503  0.97094393  0.60548259    -0.63900
O375        O  0.44343458  0.53144098  0.92057794    -0.76200
C376        C  0.01599744  0.59774810  0.53261126     0.87300
O377        O  0.03689280  0.56698957  0.97291420    -0.63300
Ni378      Ni  0.46295630  0.93464466  0.92272164     1.27400
Ni379      Ni  0.00918413  0.95713721  0.54317307     1.26100
H380        H  0.08095859  0.00512530  0.50819303     0.41800
C381        C  0.13070471  0.97469668  0.83818706    -0.13700
C382        C  0.13490287  0.95161076  0.79256468    -0.28800
H383        H  0.16473938  0.99631723  0.84141946     0.15400
H384        H  0.09873685  0.93140709  0.78979984     0.15900
C385        C  0.11788195  0.94963904  0.66945134    -0.13700
C386        C  0.15919972  0.96910243  0.69221622    -0.28800
H387        H  0.10521784  0.92008014  0.68376716     0.15400
H388        H  0.17290390  0.99811070  0.67576178     0.15900
C389        C  0.27477706  0.00073978  0.75461498    -0.10500
C390        C  0.23475959  0.97864849  0.74988906    -0.12100
C391        C  0.38422662  0.52766737  0.84976077    -0.13700
C392        C  0.34434077  0.50808516  0.82538955    -0.28800
H393        H  0.39748527  0.55712531  0.83540883     0.15400
H394        H  0.33011936  0.47914816  0.84177381     0.15900
C395        C  0.37495638  0.52379082  0.72497175    -0.13700
C396        C  0.38281256  0.49969202  0.68038238    -0.28800
H397        H  0.41003173  0.54460323  0.72890589     0.15400
H398        H  0.37607141  0.96823748  0.69483672     0.15900
C399        C  0.20911596  0.91192913  0.72864237    -0.13700
C400        C  0.22038843  0.88631952  0.76857529    -0.28800
H401        H  0.21198061  0.90174498  0.68559908     0.15400
H402        H  0.21584685  0.89541937  0.81221505     0.15900
C403        C  0.28694073  0.58802241  0.73986846    -0.13700
C404        C  0.29822957  0.56466870  0.78243518    -0.28800
H405        H  0.29245179  0.57694868  0.69715980     0.15400
H406        H  0.29455466  0.57676147  0.82449361     0.15900
C407        C  0.41995398  0.75984626  0.92876518    -0.13700
C408        C  0.37596527  0.77834122  0.90772743    -0.28800
H409        H  0.43570611  0.73185619  0.91105028     0.15400
H410        H  0.36130885  0.80702653  0.92326792     0.15900
C411        C  0.38594978  0.77756646  0.53937772    -0.13700
C412        C  0.37695780  0.75232631  0.58368195    -0.28800
H413        H  0.35106003  0.79842468  0.53460602     0.15400
H414        H  0.40967895  0.72998829  0.58830937     0.15900
C415        C  0.47885226  0.84056537  0.52457274    -0.13700
C416        C  0.46545184  0.81834480  0.48256875    -0.28800
H417        H  0.47277467  0.82899095  0.56745760     0.15400
H418        H  0.47005468  0.83098956  0.44030620     0.15900
C419        C  0.48814498  0.75106776  0.50382648    -0.10500
C420        C  0.03223115  0.72724500  0.49607514    -0.12100
C421        C  0.13200270  0.69856982  0.96921730    -0.13700
C422        C  0.13775652  0.72335365  0.92435935    -0.28800
H423        H  0.16757737  0.67782415  0.97201533     0.15400
H424        H  0.10446394  0.74564740  0.92151150     0.15900
C425        C  0.14331427  0.69481561  0.58406427    -0.13700
C426        C  0.10016342  0.71286864  0.56124967    -0.28800
H427        H  0.16176144  0.66746780  0.56653253     0.15400
H428        H  0.08069586  0.73919467  0.58164233     0.15900
C429        C  0.02357084  0.64081986  0.53348469    -0.13700
C430        C  0.06762092  0.65919632  0.49925246    -0.28800
H431        H  0.99798510  0.65691312  0.56794369     0.15400
H432        H  0.05788399  0.64823700  0.07867308     0.15700
C433        C  0.57440003  0.20259111  0.01663684     0.00300
C434        C  0.93542543  0.27438025  0.99372463     0.00300
O435        O  0.74649553  0.33623561  0.20834523    -0.78100
O436        O  0.77513494  0.15546641  0.21119344    -0.62800
O437        O  0.71292638  0.25817542  0.23493264    -1.09400
C438        C  0.83877219  0.26155067  0.37413910     1.08800
O439        O  0.76157900  0.14280556  0.30287715    -0.76000
O440        O  0.72524892  0.19734462  0.38103645    -0.63600
Ni441      Ni  0.71037586  0.29371538  0.17366107     1.34900
C442        C  0.68947002  0.22588104  0.38173217     0.87500
O443        O  0.69370341  0.19548458  0.16663877    -0.76600
O444        O  0.67193910  0.25505961  0.13449670    -0.86800
C445        C  0.77301517  0.13150845  0.25204193     0.87100
O446        O  0.78607486  0.28131810  0.13047863    -0.65000
O447        O  0.83928783  0.22424815  0.37225559    -0.84300
C448        C  0.81910824  0.25122867  0.12844986     0.87900
C449        C  0.66876295  0.21774391  0.13460944     1.09500
H450        H  0.83416008  0.22410339  0.25448536     0.41300
O451        O  0.79394061  0.22053449  0.27406864    -1.07000
O452        O  0.69832596  0.25488953  0.34790189    -0.63600
Ni453      Ni  0.76154838  0.27132086  0.28935344     1.26300
O454        O  0.80722026  0.22166606  0.16076627    -0.63900
O455        O  0.81056769  0.28323517  0.34424899    -0.76200
C456        C  0.73383714  0.34695245  0.25950836     0.87300
O457        O  0.72915837  0.32233860  0.29971396    -0.63300
Ni458      Ni  0.79947342  0.18532182  0.33516865     1.27400
Ni459      Ni  0.74409677  0.20701236  0.22057621     1.26100
H460        H  0.67228743  0.25519958  0.25368011     0.41800
C461        C  0.82619262  0.02504516  0.26440014     0.00300
C462        C  0.68769590  0.45505792  0.24768967     0.00300
O463        O  0.50599675  0.08433477  0.04867035    -0.78100
O464        O  0.98288450  0.39997102  0.06636359    -0.62800
O465        O  0.54228113  0.00778493  0.02333235    -1.09400
C466        C  0.91975892  0.00984739  0.38356916     1.08800
O467        O  0.99896151  0.39698393  0.46664417    -0.76000
O468        O  0.53831749  0.44957975  0.38482290    -0.63600
Ni469      Ni  0.54603915  0.04328912  0.08285970     1.34900
C470        C  0.57505718  0.47742211  0.38486435     0.87500
O471        O  0.56232066  0.44590329  0.10261544    -0.76600
O472        O  0.58635892  0.50601577  0.12929985    -0.86800
C473        C  0.98777339  0.37805594  0.02356247     0.87100
O474        O  0.98392405  0.02712991  0.13505079    -0.65000
O475        O  0.91966287  0.47995682  0.40115119    -0.84300
C476        C  0.95129583  0.99674327  0.13981183     0.87900
C477        C  0.58870220  0.46878961  0.13216062     1.09500
H478        H  0.92709820  0.47124828  0.02236648     0.41300
O479        O  0.96251820  0.47281565  0.49862681    -1.07000
O480        O  0.56722898  0.50521533  0.41993025    -0.63600
Ni481      Ni  0.50487496  0.02134140  0.47310500     1.26300
O482        O  0.95290672  0.46790833  0.11742897    -0.63900
O483        O  0.94419862  0.03250789  0.41482118    -0.76200
C484        C  0.52163347  0.09663934  0.99830821     0.87300
O485        O  0.53605175  0.07309344  0.46220475    -0.63300
Ni486      Ni  0.95981764  0.44015281  0.43623728     1.27400
Ni487      Ni  0.51227275  0.45640580  0.04708748     1.26100
H488        H  0.58307100  0.50525348  0.01128300     0.41800
C489        C  0.62905055  0.47825429  0.34134846    -0.13700
C490        C  0.63678631  0.45315186  0.29775737    -0.28800
H491        H  0.66098632  0.50142943  0.34370651     0.15400
H492        H  0.60241680  0.43151225  0.29534289     0.15900
C493        C  0.62142757  0.45127215  0.17418061    -0.13700
C494        C  0.66188378  0.47143056  0.19776735    -0.28800
H495        H  0.60999211  0.42146753  0.18813777     0.15400
H496        H  0.67474094  0.50071132  0.18206676     0.15900
C497        C  0.77709705  0.50114481  0.26835023    -0.10500
C498        C  0.73712515  0.48035959  0.25877893    -0.12100
C499        C  0.89039825  0.02774722  0.33953589    -0.13700
C500        C  0.85140927  0.00791530  0.31405074    -0.28800
H501        H  0.90259842  0.05757967  0.32632188     0.15400
H502        H  0.83800596  0.97856268  0.32910582     0.15900
C503        C  0.87566549  0.02691343  0.21302628    -0.13700
C504        C  0.89883034  0.99490223  0.18536801    -0.28800
H505        H  0.89405637  0.05541781  0.19908566     0.15400
H506        H  0.85627312  0.47561292  0.18951051     0.15900
C507        C  0.71228049  0.41441436  0.23355785    -0.13700
C508        C  0.72419394  0.38867059  0.27285581    -0.28800
H509        H  0.71515648  0.40451195  0.19036601     0.15400
H510        H  0.71979296  0.39747138  0.31662024     0.15900
C511        C  0.78432147  0.08985053  0.24000449    -0.13700
C512        C  0.80160608  0.06566809  0.27875694    -0.28800
H513        H  0.78547438  0.07992438  0.19708108     0.15400
H514        H  0.80162499  0.07657359  0.32105183     0.15900
C515        C  0.91206662  0.26188328  0.43850262    -0.13700
C516        C  0.87002936  0.28067184  0.41535636    -0.28800
H517        H  0.92732490  0.23352566  0.42171668     0.15400
H518        H  0.85566808  0.30969795  0.42962588     0.15900
C519        C  0.88196727  0.27420042  0.04109472    -0.13700
C520        C  0.87388549  0.24983049  0.08607720    -0.28800
H521        H  0.84718866  0.29525153  0.03671246     0.15400
H522        H  0.90622029  0.22719975  0.09058667     0.15900
C523        C  0.97343292  0.33617383  0.03008221    -0.13700
C524        C  0.96005488  0.31554784  0.98632165    -0.28800
H525        H  0.96828710  0.32293026  0.07194990     0.15400
H526        H  0.96315020  0.32966550  0.94511862     0.15900
C527        C  0.98403002  0.24808857  0.00362670    -0.10500
C528        C  0.52602598  0.22840870  0.00408505    -0.12100
C529        C  0.62887841  0.20265254  0.47046528    -0.13700
C530        C  0.63513763  0.22624413  0.42450839    -0.28800
H531        H  0.66448256  0.18228237  0.47495688     0.15400
H532        H  0.60180940  0.24811164  0.41963278     0.15900
C533        C  0.63717565  0.19908915  0.09321116    -0.13700
C534        C  0.59695253  0.21842404  0.06804141    -0.28800
H535        H  0.64985507  0.16945053  0.08058841     0.15400
H536        H  0.58296388  0.24747039  0.08283187     0.15900
C537        C  0.53549530  0.13846566  0.98740771    -0.13700
C538        C  0.54934790  0.16159174  0.02836067    -0.28800
H539        H  0.54039039  0.14951042  0.94429145     0.15400
H540        H  0.54945740  0.15121453  0.57457896     0.15700
C541        C  0.57696426  0.20375362  0.51942839     0.00300
C542        C  0.93532677  0.27674155  0.48996936     0.00300
O543        O  0.75201636  0.33559976  0.70937965    -0.78100
O544        O  0.78282290  0.15463582  0.71182334    -0.62800
O545        O  0.71834926  0.25741550  0.73556268    -1.09400
C546        C  0.84149210  0.26074791  0.87639087     1.08800
O547        O  0.76427189  0.14285443  0.80365227    -0.76000
O548        O  0.72671501  0.19676174  0.88184475    -0.63600
Ni549      Ni  0.71470223  0.29350664  0.67525535     1.34900
C550        C  0.69164515  0.22563835  0.88224675     0.87500
O551        O  0.70183571  0.19541684  0.66492055    -0.76600
O552        O  0.67522803  0.25519169  0.63698633    -0.86800
C553        C  0.77973381  0.13100347  0.75350435     0.87100
O554        O  0.78938221  0.28124031  0.63030256    -0.65000
O555        O  0.84078011  0.22341563  0.87536054    -0.84300
C556        C  0.82433270  0.25214871  0.62854397     0.87900
C557        C  0.67434640  0.21788941  0.63509191     1.09500
H558        H  0.83919484  0.22338877  0.75723376     0.41300
O559        O  0.79857475  0.21991800  0.77578606    -1.07000
O560        O  0.70196027  0.25475857  0.84878587    -0.63600
Ni561      Ni  0.76606499  0.27068122  0.79059340     1.26300
O562        O  0.81474725  0.22272649  0.66179900    -0.63900
O563        O  0.81448591  0.28259855  0.84574095    -0.76200
C564        C  0.73883947  0.34626264  0.76044082     0.87300
O565        O  0.73386160  0.32166765  0.80060826    -0.63300
Ni566      Ni  0.80174200  0.18469846  0.83732642     1.27400
Ni567      Ni  0.75075638  0.20652749  0.72055115     1.26100
H568        H  0.67775960  0.25385636  0.75411343     0.41800
C569        C  0.83145163  0.02451914  0.77615327     0.00300
C570        C  0.68604237  0.45290695  0.75313057     0.00300
O571        O  0.51370143  0.08494027  0.55339480    -0.78100
O572        O  0.97765603  0.40429547  0.55875591    -0.62800
O573        O  0.55218449  0.00872317  0.52962948    -1.09400
C574        C  0.92865026  0.00852461  0.89276633     1.08800
O575        O  0.00431379  0.39219800  0.97447180    -0.76000
O576        O  0.53089354  0.44897831  0.88357204    -0.63600
Ni577      Ni  0.55315798  0.04437221  0.58950843     1.34900
C578        C  0.56515093  0.47834664  0.88146213     0.87500
O579        O  0.56330172  0.44652279  0.60677060    -0.76600
O580        O  0.58544153  0.50658668  0.63530961    -0.86800
C581        C  0.98358382  0.38257003  0.51582232     0.87100
O582        O  0.97312808  0.03055675  0.63294415    -0.65000
O583        O  0.91542547  0.47014188  0.90910876    -0.84300
C584        C  0.93758925  0.00177128  0.63527342     0.87900
C585        C  0.58764131  0.46931461  0.63801180     1.09500
H586        H  0.92171493  0.47515722  0.51703973     0.41300
O587        O  0.96711715  0.46677292  0.00310235    -1.07000
O588        O  0.55651215  0.50632257  0.91606548    -0.63600
Ni589      Ni  0.49486130  0.02122326  0.96721567     1.26300
O590        O  0.94482137  0.47019687  0.61167481    -0.63900
O591        O  0.95901849  0.02994147  0.92063143    -0.76200
C592        C  0.52929081  0.09690073  0.50277693     0.87300
O593        O  0.52575573  0.07326662  0.95732492    -0.63300
Ni594      Ni  0.96011904  0.43211544  0.94342574     1.27400
Ni595      Ni  0.51608626  0.45722897  0.54919898     1.26100
H596        H  0.58841631  0.50577462  0.51652897     0.41800
C597        C  0.61628023  0.48118716  0.83517349    -0.13700
C598        C  0.63766874  0.44985591  0.80497116    -0.28800
H599        H  0.63602054  0.50983410  0.82479937     0.15400
H600        H  0.61872899  0.42119753  0.81718800     0.15900
C601        C  0.61806903  0.45148742  0.68138406    -0.13700
C602        C  0.65908179  0.47083859  0.70502972    -0.28800
H603        H  0.60577838  0.42174557  0.69506022     0.15400
H604        H  0.67284862  0.50004445  0.68963707     0.15900
C605        C  0.77600549  0.49800037  0.77363231    -0.10500
C606        C  0.73544906  0.47765094  0.76480599    -0.12100
C607        C  0.89726492  0.02771609  0.85077160    -0.13700
C608        C  0.85547934  0.00890112  0.82755050    -0.28800
H609        H  0.91139489  0.05692065  0.83594412     0.15400
H610        H  0.84044944  0.98026724  0.84454432     0.15900
C611        C  0.88221777  0.02417245  0.72609535    -0.13700
C612        C  0.88510578  0.00122163  0.68030676    -0.28800
H613        H  0.91929739  0.04360177  0.72893893     0.15400
H614        H  0.85105062  0.47418145  0.68916263     0.15900
C615        C  0.71077617  0.41270454  0.73644888    -0.13700
C616        C  0.72860690  0.38775006  0.77385575    -0.28800
H617        H  0.70985708  0.40262640  0.69386951     0.15400
H618        H  0.72791265  0.39681586  0.81712507     0.15900
C619        C  0.79375955  0.08912910  0.74401575    -0.13700
C620        C  0.80824585  0.06602838  0.78573435    -0.28800
H621        H  0.79730651  0.07790374  0.70152399     0.15400
H622        H  0.80675451  0.07833202  0.82743242     0.15900
C623        C  0.91406607  0.26045319  0.94097420    -0.13700
C624        C  0.87281387  0.27971748  0.91746720    -0.28800
H625        H  0.92921520  0.23210746  0.92405591     0.15400
H626        H  0.85865265  0.30876676  0.93181029     0.15900
C627        C  0.88361114  0.27598936  0.53931237    -0.13700
C628        C  0.87836602  0.25193505  0.58487812    -0.28800
H629        H  0.84743423  0.29611630  0.53578535     0.15400
H630        H  0.91227100  0.23026444  0.58879518     0.15900
C631        C  0.97249146  0.34015632  0.52302789    -0.13700
C632        C  0.95864255  0.31835428  0.48061299    -0.28800
H633        H  0.96931135  0.32741426  0.56506840     0.15400
H634        H  0.95968463  0.33192805  0.43928605     0.15900
C635        C  0.98502049  0.25098867  0.49854600    -0.10500
C636        C  0.52817954  0.22953132  0.50802847    -0.12100
C637        C  0.62745660  0.20143490  0.96874200    -0.13700
C638        C  0.63635459  0.22620792  0.92402624    -0.28800
H639        H  0.66194083  0.18024402  0.97341733     0.15400
H640        H  0.60430257  0.24899935  0.91944556     0.15900
C641        C  0.64198709  0.19972725  0.59397454    -0.13700
C642        C  0.60104455  0.21938403  0.57006195    -0.28800
H643        H  0.65446187  0.17020921  0.58057794     0.15400
H644        H  0.58728867  0.24833055  0.58546562     0.15900
C645        C  0.53993551  0.13893214  0.49119506    -0.13700
C646        C  0.55225176  0.16281624  0.53186329    -0.28800
H647        H  0.54468399  0.14948948  0.44784649     0.15400
H648        H  0.54631721  0.14957620  0.07086178     0.15700
C649        C  0.58070574  0.70158118  0.01092517     0.00300
C650        C  0.94374352  0.77237126  0.99214980     0.00300
O651        O  0.75107291  0.83584481  0.20587999    -0.78100
O652        O  0.77896655  0.65527979  0.20869511    -0.62800
O653        O  0.71599900  0.75824262  0.23044680    -1.09400
C654        C  0.83779572  0.75996116  0.37423760     1.08800
O655        O  0.75668070  0.64470956  0.30033486    -0.76000
O656        O  0.72464276  0.69828130  0.38047331    -0.63600
Ni657      Ni  0.71629367  0.79403057  0.16897958     1.34900
C658        C  0.68777915  0.72604576  0.37985410     0.87500
O659        O  0.70094192  0.69600576  0.15952107    -0.76600
O660        O  0.67975259  0.75580871  0.12761659    -0.86800
C661        C  0.77385861  0.63213630  0.25082563     0.87100
O662        O  0.79296403  0.78163876  0.12787142    -0.65000
O663        O  0.83970870  0.72271882  0.37046819    -0.84300
C664        C  0.82602375  0.75164390  0.12698459     0.87900
C665        C  0.67739022  0.71849443  0.12669303     1.09500
H666        H  0.83496228  0.72435557  0.25500376     0.41300
O667        O  0.79424426  0.72052845  0.27299453    -1.07000
O668        O  0.69562016  0.75418816  0.34429999    -0.63600
Ni669      Ni  0.76136582  0.77100948  0.28802626     1.26300
O670        O  0.81336810  0.72214324  0.15936422    -0.63900
O671        O  0.80784630  0.78195856  0.34600866    -0.76200
C672        C  0.73470735  0.84668739  0.25656487     0.87300
O673        O  0.72892111  0.82226258  0.29721544    -0.63300
Ni674      Ni  0.79764822  0.68494763  0.33365143     1.27400
Ni675      Ni  0.74777477  0.70713020  0.21660433     1.26100
H676        H  0.67481605  0.75514149  0.24749391     0.41800
C677        C  0.82578567  0.52728331  0.27909589     0.00300
C678        C  0.68493332  0.95384380  0.24079313     0.00300
O679        O  0.50702440  0.58519272  0.05499274    -0.78100
O680        O  0.99191558  0.90057576  0.05648155    -0.62800
O681        O  0.54259338  0.50797407  0.03040145    -1.09400
C682        C  0.91771697  0.51720964  0.40067922     1.08800
O683        O  0.00090813  0.89419452  0.46156402    -0.76000
O684        O  0.53984086  0.94895039  0.38235606    -0.63600
Ni685      Ni  0.54561983  0.54369797  0.09002096     1.34900
C686        C  0.57673000  0.97687376  0.38109919     0.87500
O687        O  0.55778761  0.94573832  0.09722309    -0.76600
O688        O  0.58732700  0.00532524  0.12099555    -0.86800
C689        C  0.99519130  0.87790515  0.01475544     0.87100
O690        O  0.97766331  0.52747371  0.14395395    -0.65000
O691        O  0.92144951  0.97259517  0.38646210    -0.84300
C692        C  0.94287734  0.49820705  0.14791151     0.87900
C693        C  0.58633462  0.96808171  0.12554024     1.09500
H694        H  0.93454616  0.97088913  0.01326424     0.41300
O695        O  0.96165378  0.97023917  0.48720495    -1.07000
O696        O  0.56960336  0.00499392  0.41576659    -0.63600
Ni697      Ni  0.50161201  0.52140302  0.47601739     1.26300
O698        O  0.96267209  0.96691676  0.10867720    -0.63900
O699        O  0.94394932  0.53891659  0.43229353    -0.76200
C700        C  0.52115332  0.59640846  0.00391354     0.87300
O701        O  0.53346326  0.57300786  0.46534191    -0.63300
Ni702      Ni  0.96148857  0.93503937  0.42646486     1.27400
Ni703      Ni  0.51008304  0.95676057  0.04003782     1.26100
H704        H  0.58285850  0.00434780  0.00480303     0.41800
C705        C  0.62998418  0.97726938  0.33639173    -0.13700
C706        C  0.63479579  0.95313628  0.29170828    -0.28800
H707        H  0.66370376  0.99927002  0.33879045     0.15400
H708        H  0.59887935  0.93260458  0.28957661     0.15900
C709        C  0.61787184  0.94999931  0.16794978    -0.13700
C710        C  0.65907407  0.96970187  0.19079465    -0.28800
H711        H  0.60515916  0.92052587  0.18264245     0.15400
H712        H  0.67285115  0.99861861  0.17406686     0.15900
C713        C  0.77659113  0.00003734  0.25390325    -0.10500
C714        C  0.73524127  0.97919289  0.24866974    -0.12100
C715        C  0.88586722  0.53528863  0.35807992    -0.13700
C716        C  0.84721192  0.51420774  0.33309713    -0.28800
H717        H  0.89835928  0.56474258  0.34320188     0.15400
H718        H  0.83355052  0.48538344  0.35022386     0.15900
C719        C  0.87925944  0.52619531  0.23151708    -0.13700
C720        C  0.88818063  0.49900012  0.19055614    -0.28800
H721        H  0.91371829  0.54791244  0.23314356     0.15400
H722        H  0.87969526  0.96634094  0.19760501     0.15900
C723        C  0.70873417  0.91282797  0.22838922    -0.13700
C724        C  0.72251843  0.88835108  0.26853136    -0.28800
H725        H  0.71063501  0.90184253  0.18585782     0.15400
H726        H  0.71855137  0.89812734  0.31181363     0.15900
C727        C  0.78872508  0.59045829  0.24262296    -0.13700
C728        C  0.80112379  0.56839505  0.28594491    -0.28800
H729        H  0.79519506  0.57874882  0.20025030     0.15400
H730        H  0.79633252  0.58134889  0.32754686     0.15900
C731        C  0.91395395  0.75976171  0.43624195    -0.13700
C732        C  0.86999149  0.77846439  0.41547878    -0.28800
H733        H  0.92965128  0.73196256  0.41779387     0.15400
H734        H  0.85517678  0.80701065  0.43146751     0.15900
C735        C  0.88986792  0.77335895  0.03917868    -0.13700
C736        C  0.88158007  0.75020040  0.08563604    -0.28800
H737        H  0.85490987  0.79384869  0.03312426     0.15400
H738        H  0.91408393  0.72807141  0.09186865     0.15900
C739        C  0.98146690  0.83595891  0.02418068    -0.13700
C740        C  0.96920119  0.81334455  0.98199763    -0.28800
H741        H  0.97546879  0.82436146  0.06705543     0.15400
H742        H  0.97355119  0.82583036  0.93966616     0.15900
C743        C  0.99133462  0.74609037  0.00438613    -0.10500
C744        C  0.53259923  0.72724357  0.99817721    -0.12100
C745        C  0.62880024  0.70288633  0.46969411    -0.13700
C746        C  0.63382369  0.72639932  0.42352318    -0.28800
H747        H  0.66471465  0.68258008  0.47335528     0.15400
H748        H  0.60000661  0.74805808  0.41926555     0.15900
C749        C  0.64762213  0.70013724  0.08382108    -0.13700
C750        C  0.60689955  0.71919119  0.05906145    -0.28800
H751        H  0.66006927  0.67039103  0.07156190     0.15400
H752        H  0.59310721  0.74838428  0.07332735     0.15900
C753        C  0.53493212  0.63780430  0.99038192    -0.13700
C754        C  0.55449528  0.66144270  0.02775360    -0.28800
H755        H  0.53607834  0.64785302  0.94713350     0.15400
H756        H  0.55135130  0.65138979  0.57583286     0.15700
C757        C  0.57830361  0.70382691  0.52011669     0.00300
C758        C  0.93904202  0.77397895  0.48729664     0.00300
O759        O  0.75935108  0.83440697  0.70637609    -0.78100
O760        O  0.78457765  0.65209145  0.71164516    -0.62800
O761        O  0.72513717  0.75641294  0.73449733    -1.09400
C762        C  0.85364834  0.75808676  0.87151814     1.08800
O763        O  0.76670379  0.64247063  0.80373351    -0.76000
O764        O  0.73735887  0.69704429  0.88214302    -0.63600
Ni765      Ni  0.72168705  0.79198289  0.67332220     1.34900
C766        C  0.70405430  0.72686860  0.88381764     0.87500
O767        O  0.70392481  0.69379311  0.66569403    -0.76600
O768        O  0.68170121  0.75377497  0.63529224    -0.86800
C769        C  0.78098842  0.62928282  0.75426452     0.87100
O770        O  0.79633772  0.77874815  0.62920614    -0.65000
O771        O  0.85270377  0.72074130  0.87009043    -0.84300
C772        C  0.82939636  0.74863244  0.62633319     0.87900
C773        C  0.67836472  0.71654113  0.63460297     1.09500
H774        H  0.84575898  0.72050654  0.75328103     0.41300
O775        O  0.80544466  0.71785173  0.77303147    -1.07000
O776        O  0.71342605  0.75517172  0.84877919    -0.63600
Ni777      Ni  0.77563991  0.76927941  0.78772401     1.26300
O778        O  0.81832459  0.71902598  0.65903925    -0.63900
O779        O  0.82661642  0.78030848  0.84119894    -0.76200
C780        C  0.74761468  0.84535282  0.75737509     0.87300
O781        O  0.74542038  0.82102468  0.79777309    -0.63300
Ni782      Ni  0.80940716  0.68289259  0.83460208     1.27400
Ni783      Ni  0.75504293  0.70469251  0.71970577     1.26100
H784        H  0.68482092  0.75381357  0.75427606     0.41800
C785        C  0.82616200  0.52259483  0.78409102     0.00300
C786        C  0.69318066  0.95221551  0.74865304     0.00300
O787        O  0.51066924  0.58568626  0.55624233    -0.78100
O788        O  0.97827144  0.90468311  0.55288139    -0.62800
O789        O  0.54728060  0.50862338  0.53370874    -1.09400
C790        C  0.92115705  0.50709748  0.90217576     1.08800
O791        O  0.00990626  0.89108773  0.96477424    -0.76000
O792        O  0.53712230  0.94826164  0.87779239    -0.63600
Ni793      Ni  0.54724187  0.54437583  0.59369935     1.34900
C794        C  0.57016867  0.97824808  0.87529022     0.87500
O795        O  0.57159532  0.94672853  0.60118223    -0.76600
O796        O  0.59364759  0.00679684  0.62990415    -0.86800
C797        C  0.98436014  0.88139060  0.51146559     0.87100
O798        O  0.97856520  0.52153813  0.65340306    -0.65000
O799        O  0.92610020  0.97127936  0.89714726    -0.84300
C800        C  0.93952510  0.49569808  0.65011648     0.87900
C801        C  0.59618277  0.96945636  0.63228753     1.09500
H802        H  0.92073050  0.97269584  0.50530462     0.41300
O803        O  0.97454529  0.96720122  0.99346563    -1.07000
O804        O  0.55926685  0.00698523  0.90842431    -0.63600
Ni805      Ni  0.49331245  0.52068784  0.97559149     1.26300
O806        O  0.94533283  0.97304972  0.60157278    -0.63900
O807        O  0.95491502  0.52808392  0.92731251    -0.76200
C808        C  0.52741311  0.59710048  0.50551121     0.87300
O809        O  0.52391551  0.57238665  0.96398787    -0.63300
Ni810      Ni  0.96857452  0.93261287  0.93308612     1.27400
Ni811      Ni  0.52194990  0.95730496  0.54570799     1.26100
H812        H  0.59309529  0.00609655  0.51162819     0.41800
C813        C  0.62236061  0.98088227  0.82992009    -0.13700
C814        C  0.64439115  0.94940539  0.80025170    -0.28800
H815        H  0.64187696  0.00955754  0.81927517     0.15400
H816        H  0.62556954  0.92074749  0.81264688     0.15900
C817        C  0.62671266  0.95119856  0.67538210    -0.13700
C818        C  0.66700679  0.97031931  0.70007570    -0.28800
H819        H  0.61456192  0.92131081  0.68834192     0.15400
H820        H  0.68053320  0.99971953  0.68536357     0.15900
C821        C  0.78166399  0.99902709  0.76751982    -0.10500
C822        C  0.74205025  0.97736039  0.76025909    -0.12100
C823        C  0.88986989  0.52624361  0.86009738    -0.13700
C824        C  0.84707366  0.50785669  0.83754795    -0.28800
H825        H  0.90589640  0.55472679  0.84363343     0.15400
H826        H  0.83005623  0.47994680  0.85571357     0.15900
C827        C  0.87920402  0.52050731  0.73666490    -0.13700
C828        C  0.88537670  0.49542063  0.69316238    -0.28800
H829        H  0.91541929  0.54056196  0.73992075     0.15400
H830        H  0.85027293  0.98024954  0.67686427     0.15900
C831        C  0.71815840  0.91179584  0.73263199    -0.13700
C832        C  0.73609949  0.88697711  0.77037768    -0.28800
H833        H  0.71753164  0.90151620  0.69011853     0.15400
H834        H  0.73524193  0.89632112  0.81353779     0.15900
C835        C  0.79325083  0.58704758  0.74700170    -0.13700
C836        C  0.80481678  0.56462639  0.79062661    -0.28800
H837        H  0.79770572  0.57486991  0.70499739     0.15400
H838        H  0.80221708  0.57779707  0.83189594     0.15900
C839        C  0.92292826  0.75705741  0.93978245    -0.13700
C840        C  0.88445076  0.77679510  0.91324568    -0.28800
H841        H  0.93667854  0.72789293  0.92525273     0.15400
H842        H  0.87167919  0.80644785  0.92572496     0.15900
C843        C  0.88826622  0.77262012  0.53738104    -0.13700
C844        C  0.88283364  0.74764652  0.58187933    -0.28800
H845        H  0.85251950  0.79336314  0.53521308     0.15400
H846        H  0.91593129  0.72514395  0.58433574     0.15900
C847        C  0.97264083  0.83897790  0.52068760    -0.13700
C848        C  0.96145295  0.81594211  0.47821636    -0.28800
H849        H  0.96784082  0.82721620  0.56340323     0.15400
H850        H  0.96379328  0.82881675  0.43629203     0.15900
C851        C  0.98993479  0.74831298  0.49396125    -0.10500
C852        C  0.52868099  0.72973950  0.51079668    -0.12100
C853        C  0.62961989  0.69842718  0.95976440    -0.13700
C854        C  0.65312797  0.72990639  0.93001990    -0.28800
H855        H  0.64683351  0.66957597  0.94739392     0.15400
H856        H  0.63499673  0.75879463  0.94047114     0.15900
C857        C  0.64531089  0.69888460  0.59342698    -0.13700
C858        C  0.60448647  0.71910738  0.56992956    -0.28800
H859        H  0.65675063  0.66921435  0.58005368     0.15400
H860        H  0.59182163  0.74818617  0.58548455     0.15900
C861        C  0.53992737  0.63890506  0.49310019    -0.13700
C862        C  0.55363283  0.66285945  0.53310263    -0.28800
H863        H  0.54433479  0.64919252  0.44964552     0.15400
H864        H  0.55512333  0.65047809  0.07032749     0.15700
loop_ 
_geom_bond_atom_site_label_1 
_geom_bond_atom_site_label_2 
_geom_bond_distance 
_geom_bond_site_symmetry_2 
_ccdc_geom_bond_type 
C1           C96   1.473       .  S
C1          C102   1.518       .  S
C1          C106   1.524       .  S
C1          C205   1.533   1_554  S
C2           C95   1.480       .  S
C2           C87   1.522   1_556  S
C2           C92   1.519       .  S
C2          C191   1.523       .  S
O3           Ni9   1.914       .  S
O3           C24   1.263       .  A
O4          Ni27   1.915       .  S
O4           C13   1.271       .  A
O5           Ni9   1.898       .  S
O5          Ni27   1.897       .  S
O5          Ni21   1.914       .  S
O5           H28   0.967       .  S
C6           O23   1.278       .  A
C6           O15   1.278       .  A
C6           C84   1.475       .  S
O7          Ni26   1.931       .  S
O7           C13   1.273       .  A
O8          Ni26   1.906       .  S
O8           C10   1.271       .  A
Ni9          O12   1.912       .  S
Ni9          O14   1.899       .  S
C10          O20   1.280       .  A
C10          C98   1.487       .  S
O11         Ni27   1.929       .  S
O11          C17   1.280       .  A
O12          C17   1.277       .  A
C13          C79   1.482       .  S
O14          C16   1.266       .  A
O15         Ni26   1.922       .  S
C16          O22   1.269       .  A
C16          C88   1.475       .  S
C17         C101   1.471       .  S
H18          O19   0.966       .  S
O19         Ni27   1.916       .  S
O19         Ni21   1.910       .  S
O19         Ni26   1.894       .  S
O20         Ni21   1.948       .  S
Ni21         O25   1.938       .  S
Ni21         O23   1.922       .  S
O22         Ni27   1.926       .  S
C24          O25   1.278       .  A
C24          C76   1.477       .  S
C29         C281   1.480   1_545  S
C29          C68   1.523       .  S
C29          C71   1.532       .  S
C29          C80   1.526       .  S
C30          C66   1.481       .  S
C30          C58   1.517       .  S
C30          C62   1.524       .  S
C30          C75   1.526       .  S
O31         Ni37   1.939       .  S
O31          C52   1.275       .  A
O32        Ni487   1.923       .  S
O32          C41   1.272       .  A
O33         Ni37   1.903       .  S
O33        Ni271   1.908   1_545  S
O33        Ni157   1.916   1_554  S
O33         H272   0.966       .  S
C34          O51   1.277       .  A
C34         O259   1.277   1_545  A
C34          C67   1.478       .  S
O35         Ni54   1.917       .  S
O35         C149   1.269       .  A
O36        Ni486   1.895   1_455  S
O36          C38   1.270       .  A
Ni37        O256   1.933   1_545  S
Ni37        O474   1.914   1_455  S
C38          O48   1.273       .  A
C38          C57   1.480       .  S
O39         Ni55   1.923       .  S
O39          C45   1.276       .  A
O40        Ni253   1.928       .  S
O40          C45   1.279       .  A
C41         O143   1.268   1_554  A
C41          C91   1.477       .  S
O42        Ni469   1.908       .  S
O42          C44   1.270       .  A
O43         Ni54   1.916       .  S
O43         C250   1.277       .  A
C44         O266   1.276   1_545  A
C44          C72   1.487       .  S
C45          C61   1.480       .  S
H46         O155   0.966   1_554  S
O47         Ni54   1.898       .  S
O47        Ni595   1.916       .  S
O47        Ni697   1.897       .  S
O47         H154   0.966       .  S
O48        Ni265   1.935   1_455  S
Ni49         O53   1.906   1_655  S
Ni49        O264   1.915   1_655  S
Ni49        O483   1.920       .  S
Ni49        O141   1.914   1_655  S
Ni49        O695   1.905   1_545  S
O50        Ni487   1.934       .  S
O50         C260   1.273       .  A
O51        Ni481   1.925       .  S
C52         O161   1.267   1_554  A
C52         C105   1.480   1_554  S
O53         C160   1.266       .  A
Ni54        O468   1.907       .  S
Ni55        O464   1.915   1_455  S
Ni55        O482   1.934   1_455  S
Ni55        O249   1.904       .  S
Ni55        O587   1.918   1_455  S
H56         O249   0.966       .  S
C57          C58   1.349       .  D
C57          H59   1.085       .  S
C58          H60   1.088       .  S
C61          C62   1.348       .  D
C61          H63   1.086       .  S
C62          H64   1.089       .  S
C65         C245   1.479       .  S
C65          C66   1.209       .  T
C67          C68   1.349       .  D
C67          H69   1.086       .  S
C68          H70   1.089   1_545  S
C71          C72   1.355       .  D
C71          H73   1.087       .  S
C72         H290   1.085   1_545  S
H74         C288   1.086       .  S
C75          C76   1.336       .  D
C75          H77   1.089       .  S
C76          H78   1.087       .  S
C79          C80   1.351       .  D
C79          H81   1.086       .  S
C80          H82   1.088       .  S
C83         C110   1.521       .  S
C83          C84   1.351       .  D
C83          H85   1.089       .  S
C84          H86   1.086       .  S
C87          C88   1.350       .  D
C87          H89   1.088       .  S
C88          H90   1.085       .  S
C91          C92   1.353   1_554  D
C91          H93   1.086       .  S
C92          H94   1.088       .  S
C95         C528   1.208   1_556  T
C96         C527   1.206   1_455  T
C97         C109   1.530       .  S
C97          C98   1.354       .  D
C97          H99   1.088       .  S
C98         H100   1.086       .  S
C101        C102   1.348       .  D
C101        H103   1.087       .  S
C102        H104   1.089       .  S
C105        C106   1.346   1_556  D
C105        H107   1.086       .  S
C106        H216   1.088       .  S
H108        C214   1.088       .  S
C109        C204   1.473       .  S
C109        C210   1.519       .  S
C109        C214   1.523       .  S
C110        C203   1.477       .  S
C110        C195   1.521       .  S
C110        C200   1.519       .  S
O111       Ni117   1.910       .  S
O111        C132   1.262       .  A
O112       Ni135   1.903       .  S
O112        C121   1.268       .  A
O113       Ni117   1.893       .  S
O113       Ni135   1.892       .  S
O113       Ni129   1.915       .  S
O113        H136   0.967       .  S
C114        O131   1.280       .  A
C114        O123   1.277       .  A
C114        C192   1.478       .  S
O115       Ni134   1.930       .  S
O115        C121   1.273       .  A
O116       Ni134   1.907       .  S
O116        C118   1.271       .  A
Ni117       O120   1.911       .  S
Ni117       O122   1.896       .  S
C118        O128   1.280       .  A
C118        C206   1.490       .  S
O119       Ni135   1.933       .  S
O119        C125   1.281       .  A
O120        C125   1.277       .  A
C121        C187   1.472       .  S
O122        C124   1.265       .  A
O123       Ni134   1.920       .  S
C124        O130   1.268       .  A
C124        C196   1.474       .  S
C125        C209   1.474       .  S
H126        O127   0.966       .  S
O127       Ni135   1.916       .  S
O127       Ni129   1.905       .  S
O127       Ni134   1.891       .  S
O128       Ni129   1.949       .  S
Ni129       O133   1.936       .  S
Ni129       O131   1.930       .  S
O130       Ni135   1.926       .  S
C132        O133   1.278       .  A
C132        C184   1.471       .  S
C137        C389   1.474       .  S
C137        C176   1.518       .  S
C137        C179   1.525       .  S
C137        C188   1.522       .  S
C138        C174   1.477       .  S
C138        C166   1.518       .  S
C138        C170   1.521       .  S
C138        C183   1.523       .  S
O139       Ni145   1.927       .  S
O139        C160   1.271       .  A
O140       Ni595   1.919       .  S
O140        C149   1.271       .  A
O141       Ni145   1.900       .  S
O141       Ni379   1.907   1_545  S
O141        H380   0.966       .  S
C142        O159   1.276       .  A
C142        O367   1.278   1_545  A
C142        C175   1.470       .  S
O143       Ni162   1.915       .  S
O144       Ni594   1.909   1_455  S
O144        C146   1.268       .  A
Ni145       O364   1.915       .  S
Ni145       O582   1.902   1_455  S
C146        O156   1.266       .  A
C146        C165   1.465       .  S
O147       Ni163   1.929       .  S
O147        C153   1.277       .  A
O148       Ni361   1.918       .  S
O148        C153   1.279       .  A
C149        C199   1.476       .  S
O150       Ni577   1.908       .  S
O150        C152   1.269   1_545  A
O151       Ni162   1.919       .  S
O151        C358   1.278       .  A
C152        O374   1.270       .  A
C152        C180   1.477       .  S
C153        C169   1.478       .  S
O155       Ni487   1.918   1_556  S
O155       Ni805   1.897       .  S
O155       Ni162   1.900       .  S
O156       Ni373   1.919       .  S
Ni157       O372   1.925       .  S
Ni157       O161   1.905       .  S
Ni157       O591   1.928   1_455  S
Ni157       O803   1.901   1_445  S
O158       Ni595   1.929       .  S
O158        C368   1.271       .  A
O159       Ni589   1.916       .  S
C160        C213   1.474       .  S
Ni162       O576   1.906       .  S
Ni163       O572   1.911   1_455  S
Ni163       O590   1.925   1_455  S
Ni163       O357   1.902       .  S
Ni163       O479   1.913   1_455  S
H164        O357   0.966       .  S
C165        C166   1.341       .  D
C165        H167   1.086       .  S
C166        H168   1.089       .  S
C169        C170   1.345       .  D
C169        H171   1.086       .  S
C170        H172   1.090       .  S
C173        C353   1.474       .  S
C173        C174   1.206       .  T
C175        C176   1.346       .  D
C175        H177   1.087       .  S
C176        H178   1.089   1_545  S
C179        C180   1.346   1_545  D
C179        H181   1.088       .  S
C180        H398   1.087       .  S
H182        C396   1.085       .  S
C183        C184   1.336       .  D
C183        H185   1.088       .  S
C184        H186   1.087       .  S
C187        C188   1.347       .  D
C187        H189   1.087       .  S
C188        H190   1.088       .  S
C191        C192   1.353       .  D
C191        H193   1.089       .  S
C192        H194   1.086       .  S
C195        C196   1.350       .  D
C195        H197   1.088       .  S
C196        H198   1.085       .  S
C199        C200   1.351       .  D
C199        H201   1.086       .  S
C200        H202   1.088       .  S
C203        C636   1.207       .  T
C204        C635   1.205   1_455  T
C205        C206   1.358       .  D
C205        H207   1.087       .  S
C206        H208   1.085       .  S
C209        C210   1.349       .  D
C209        H211   1.087       .  S
C210        H212   1.089       .  S
C213        C214   1.347       .  D
C213        H215   1.087       .  S
C217        C312   1.473       .  S
C217        C421   1.531   1_554  S
C217        C318   1.514       .  S
C217        C322   1.518       .  S
C218        C311   1.474       .  S
C218        C407   1.522       .  S
C218        C303   1.517   1_556  S
C218        C308   1.520       .  S
O219       Ni225   1.914       .  S
O219        C240   1.262       .  A
O220       Ni243   1.911       .  S
O220        C229   1.269       .  A
O221       Ni225   1.889       .  S
O221       Ni243   1.893       .  S
O221       Ni237   1.910       .  S
O221        H244   0.966       .  S
C222        O239   1.280       .  A
C222        O231   1.276       .  A
C222        C300   1.475       .  S
O223       Ni242   1.930       .  S
O223        C229   1.272       .  A
O224       Ni242   1.898       .  S
O224        C226   1.271       .  A
Ni225       O228   1.911       .  S
Ni225       O230   1.891       .  S
C226        O236   1.276       .  A
C226        C314   1.484       .  S
O227       Ni243   1.922       .  S
O227        C233   1.278       .  A
O228        C233   1.278       .  A
C229        C295   1.479       .  S
O230        C232   1.265       .  A
O231       Ni242   1.914       .  S
C232        O238   1.268       .  A
C232        C304   1.471       .  S
C233        C317   1.466       .  S
H234        O235   0.966       .  S
O235       Ni243   1.912       .  S
O235       Ni237   1.914       .  S
O235       Ni242   1.892       .  S
O236       Ni237   1.942       .  S
Ni237       O241   1.936       .  S
Ni237       O239   1.927       .  S
O238       Ni243   1.924       .  S
C240        O241   1.279       .  A
C240        C292   1.476       .  S
C245        C284   1.518       .  S
C245        C287   1.529       .  S
C245        C296   1.523       .  S
C246        C282   1.482       .  S
C246        C274   1.516       .  S
C246        C278   1.524       .  S
C246        C291   1.523       .  S
O247       Ni253   1.935       .  S
O247        C268   1.275       .  A
O248       Ni703   1.922       .  S
O248        C257   1.272       .  A
O249       Ni253   1.895       .  S
O249       Ni373   1.918   1_554  S
C250        O267   1.276       .  A
C250        C283   1.472       .  S
O251       Ni270   1.920       .  S
O251        C365   1.270       .  A
O252       Ni702   1.904   1_455  S
O252        C254   1.270       .  A
Ni253       O690   1.905   1_455  S
C254        O264   1.265   1_565  A
C254        C273   1.473       .  S
O255       Ni271   1.917       .  S
O255        C261   1.274       .  A
O256        C261   1.280       .  A
C257        O359   1.268   1_554  A
C257        C307   1.478       .  S
O258       Ni685   1.910       .  S
O258        C260   1.272       .  A
O259       Ni270   1.921       .  S
C260        C288   1.484       .  S
C261        C277   1.479       .  S
H262        O371   0.966   1_554  S
O263       Ni811   1.921       .  S
O263       Ni481   1.899   1_565  S
O263       Ni270   1.902       .  S
O263        H370   0.966       .  S
Ni265       O269   1.942   1_655  S
Ni265       O699   1.945       .  S
Ni265       O357   1.920   1_655  S
Ni265       O479   1.913       .  S
O266       Ni703   1.941       .  S
O267       Ni697   1.922       .  S
C268        O377   1.267   1_554  A
C268        C321   1.474   1_554  S
O269        C376   1.280       .  A
Ni270       O684   1.909       .  S
Ni271       O680   1.912   1_455  S
Ni271       O698   1.935   1_455  S
Ni271       O803   1.916   1_454  S
C273        C274   1.341       .  D
C273        H275   1.085   1_565  S
C274        H276   1.089       .  S
C277        C278   1.346       .  D
C277        H279   1.086       .  S
C278        H280   1.089       .  S
C281        C282   1.209       .  T
C283        C284   1.347       .  D
C283        H285   1.087       .  S
C284        H286   1.089       .  S
C287        C288   1.350       .  D
C287        H289   1.088       .  S
C291        C292   1.335       .  D
C291        H293   1.090       .  S
C292        H294   1.087       .  S
C295        C296   1.350       .  D
C295        H297   1.087       .  S
C296        H298   1.088       .  S
C299        C326   1.520       .  S
C299        C300   1.352       .  D
C299        H301   1.089       .  S
C300        H302   1.086       .  S
C303        C304   1.349       .  D
C303        H305   1.088       .  S
C304        H306   1.085       .  S
C307        C308   1.354   1_554  D
C307        H309   1.086       .  S
C308        H310   1.088       .  S
C311        C744   1.205       .  T
C312        C743   1.205   1_455  T
C313        C325   1.523       .  S
C313        C314   1.351       .  D
C313        H315   1.088       .  S
C314        H316   1.085       .  S
C317        C318   1.345       .  D
C317        H319   1.087       .  S
C318        H320   1.089       .  S
C321        C322   1.344   1_556  D
C321        H323   1.087       .  S
C322        H432   1.088       .  S
H324        C430   1.089       .  S
C325        C420   1.484       .  S
C325        C426   1.530       .  S
C325        C430   1.532       .  S
C326        C419   1.482       .  S
C326        C411   1.531       .  S
C326        C416   1.516       .  S
O327       Ni333   1.935       .  S
O327        C348   1.274       .  A
O328       Ni351   1.909       .  S
O328        C337   1.269       .  A
O329       Ni333   1.907       .  S
O329       Ni351   1.906       .  S
O329       Ni345   1.921       .  S
O329        H352   0.966       .  S
C330        O347   1.278       .  A
C330        O339   1.278       .  A
C330        C408   1.476       .  S
O331       Ni350   1.923       .  S
O331        C337   1.271       .  A
O332       Ni350   1.912       .  S
O332        C334   1.270       .  A
Ni333       O336   1.933       .  S
Ni333       O338   1.915       .  S
C334        O344   1.272       .  A
C334        C422   1.482       .  S
O335       Ni351   1.926       .  S
O335        C341   1.276       .  A
O336        C341   1.279       .  A
C337        C403   1.473       .  S
O338        C340   1.271       .  A
O339       Ni350   1.922       .  S
C340        O346   1.272       .  A
C340        C412   1.481       .  S
C341        C425   1.487       .  S
H342        O343   0.966       .  S
O343       Ni351   1.914       .  S
O343       Ni345   1.893       .  S
O343       Ni350   1.899       .  S
O344       Ni345   1.929       .  S
Ni345       O349   1.905       .  S
Ni345       O347   1.927       .  S
O346       Ni351   1.929       .  S
C348        O349   1.267       .  A
C348        C400   1.477       .  S
C353        C392   1.517       .  S
C353        C395   1.527       .  S
C353        C404   1.517       .  S
C354        C390   1.476       .  S
C354        C382   1.529       .  S
C354        C386   1.515       .  S
C354        C399   1.520       .  S
O355       Ni361   1.921       .  S
O355        C376   1.266       .  A
O356       Ni811   1.911       .  S
O356        C365   1.268       .  A
O357       Ni361   1.890       .  S
C358        O375   1.275       .  A
C358        C391   1.469       .  S
O359       Ni378   1.918       .  S
O360       Ni810   1.910   1_455  S
O360        C362   1.269       .  A
Ni361       O798   1.898   1_455  S
C362        O372   1.270   1_565  A
C362        C381   1.479       .  S
O363       Ni379   1.916       .  S
O363        C369   1.275       .  A
O364        C369   1.276   1_545  A
C365        C415   1.473       .  S
O366       Ni793   1.910       .  S
O366        C368   1.271       .  A
O367       Ni378   1.921       .  S
C368        C396   1.481       .  S
C369        C385   1.468       .  S
O371       Ni703   1.916   1_556  S
O371       Ni589   1.902   1_565  S
O371       Ni378   1.902       .  S
Ni373       O377   1.900       .  S
Ni373       O807   1.936   1_455  S
Ni373       O587   1.891   1_456  S
O374       Ni811   1.925       .  S
O375       Ni805   1.915       .  S
C376        C429   1.483       .  S
Ni378       O792   1.905       .  S
Ni379       O788   1.924   1_455  S
Ni379       O806   1.931   1_455  S
Ni379       O695   1.912   1_455  S
C381        C382   1.350       .  D
C381        H383   1.085       .  S
C382        H384   1.087       .  S
C385        C386   1.347       .  D
C385        H387   1.087       .  S
C386        H388   1.089       .  S
C389        C390   1.206   1_545  T
C391        C392   1.345       .  D
C391        H393   1.087       .  S
C392        H394   1.089       .  S
C395        C396   1.349       .  D
C395        H397   1.088       .  S
C399        C400   1.347       .  D
C399        H401   1.088       .  S
C400        H402   1.087       .  S
C403        C404   1.348       .  D
C403        H405   1.087       .  S
C404        H406   1.088       .  S
C407        C408   1.350       .  D
C407        H409   1.089       .  S
C408        H410   1.087       .  S
C411        C412   1.351       .  D
C411        H413   1.088       .  S
C412        H414   1.085       .  S
C415        C416   1.347       .  D
C415        H417   1.087       .  S
C416        H418   1.088       .  S
C419        C852   1.209       .  T
C420        C851   1.211   1_455  T
C421        C422   1.352       .  D
C421        H423   1.087       .  S
C422        H424   1.085       .  S
C425        C426   1.349       .  D
C425        H427   1.086       .  S
C426        H428   1.089       .  S
C429        C430   1.340       .  D
C429        H431   1.087   1_455  S
C433        C528   1.480       .  S
C433        C637   1.527   1_554  S
C433        C534   1.521       .  S
C433        C538   1.519       .  S
C434        C527   1.475   1_556  S
C434        C623   1.515       .  S
C434        C519   1.524   1_556  S
C434        C524   1.513       .  S
O435       Ni441   1.936       .  S
O435        C456   1.275       .  A
O436       Ni459   1.901       .  S
O436        C445   1.265       .  A
O437       Ni441   1.905       .  S
O437       Ni459   1.902       .  S
O437       Ni453   1.909       .  S
O437        H460   0.966       .  S
C438        O455   1.272       .  A
C438        O447   1.276       .  A
C438        C516   1.473       .  S
O439       Ni458   1.928       .  S
O439        C445   1.272       .  A
O440       Ni458   1.909       .  S
O440        C442   1.270       .  A
Ni441       O444   1.926       .  S
Ni441       O446   1.912       .  S
C442        O452   1.269       .  A
C442        C530   1.474       .  S
O443       Ni459   1.915       .  S
O443        C449   1.275       .  A
O444        C449   1.277       .  A
C445        C511   1.471       .  S
O446        C448   1.271       .  A
O447       Ni458   1.922       .  S
C448        O454   1.268       .  A
C448        C520   1.477       .  S
C449        C533   1.474       .  S
H450        O451   0.966       .  S
O451       Ni459   1.914       .  S
O451       Ni453   1.903       .  S
O451       Ni458   1.907       .  S
O452       Ni453   1.919       .  S
Ni453       O457   1.897       .  S
Ni453       O455   1.914       .  S
O454       Ni459   1.920       .  S
C456        O457   1.264       .  A
C456        C508   1.474       .  S
C461        C713   1.476       .  S
C461        C500   1.519       .  S
C461        C503   1.529       .  S
C461        C512   1.520       .  S
C462        C498   1.483       .  S
C462        C490   1.528       .  S
C462        C494   1.522       .  S
C462        C507   1.519       .  S
O463       Ni469   1.923       .  S
O463        C484   1.270   1_554  A
O464        C473   1.271       .  A
O465       Ni469   1.901       .  S
O465       Ni703   1.905   1_545  S
O465       Ni589   1.916   1_554  S
O465        H704   0.966       .  S
C466        O483   1.277       .  A
C466        O691   1.275   1_545  A
C466        C499   1.470       .  S
O467       Ni486   1.923       .  S
O467        C581   1.269       .  A
O468        C470   1.269       .  A
Ni469       O688   1.915       .  S
C470        O480   1.271       .  A
C470        C489   1.478       .  S
O471       Ni487   1.926       .  S
O471        C477   1.279       .  A
O472       Ni685   1.916       .  S
O472        C477   1.275       .  A
C473        O575   1.267   1_654  A
C473        C523   1.469       .  S
O474        C476   1.271   1_545  A
O475       Ni486   1.904       .  S
O475        C682   1.274       .  A
C476        O698   1.274       .  A
C476        C504   1.483       .  S
C477        C493   1.473       .  S
H478        O587   0.966       .  S
O479       Ni486   1.891       .  S
O479        H586   0.966       .  S
O480       Ni697   1.927       .  S
Ni481       O696   1.933       .  S
Ni481       O485   1.906       .  S
Ni481       O573   1.916       .  S
O482        C692   1.275       .  A
C484        O593   1.268       .  A
C484        C537   1.475       .  S
O485        C592   1.268       .  A
Ni487       O681   1.907       .  S
H488        O681   0.966       .  S
C489        C490   1.352       .  D
C489        H491   1.085       .  S
C490        H492   1.087       .  S
C493        C494   1.354       .  D
C493        H495   1.087       .  S
C494        H496   1.088       .  S
C497        C677   1.484       .  S
C497        C498   1.210       .  T
C499        C500   1.349       .  D
C499        H501   1.087       .  S
C500        H502   1.089   1_545  S
C503        C504   1.349   1_545  D
C503        H505   1.088       .  S
C504        H722   1.087       .  S
H506        C720   1.085       .  S
C507        C508   1.343       .  D
C507        H509   1.088       .  S
C508        H510   1.087       .  S
C511        C512   1.345       .  D
C511        H513   1.087       .  S
C512        H514   1.088       .  S
C515        C542   1.519       .  S
C515        C516   1.345       .  D
C515        H517   1.089       .  S
C516        H518   1.087       .  S
C519        C520   1.344       .  D
C519        H521   1.088       .  S
C520        H522   1.085       .  S
C523        C524   1.350   1_554  D
C523        H525   1.087       .  S
C524        H526   1.088       .  S
C529        C541   1.526       .  S
C529        C530   1.347       .  D
C529        H531   1.088       .  S
C530        H532   1.085       .  S
C533        C534   1.349       .  D
C533        H535   1.087       .  S
C534        H536   1.089       .  S
C537        C538   1.349   1_556  D
C537        H539   1.087       .  S
C538        H648   1.088       .  S
H540        C646   1.088       .  S
C541        C636   1.478       .  S
C541        C642   1.520       .  S
C541        C646   1.516       .  S
C542        C635   1.475       .  S
C542        C627   1.528       .  S
C542        C632   1.520       .  S
O543       Ni549   1.932       .  S
O543        C564   1.273       .  A
O544       Ni567   1.919       .  S
O544        C553   1.272       .  A
O545       Ni549   1.904       .  S
O545       Ni567   1.905       .  S
O545       Ni561   1.907       .  S
O545        H568   0.966       .  S
C546        O563   1.271       .  A
C546        O555   1.277       .  A
C546        C624   1.469       .  S
O547       Ni566   1.922       .  S
O547        C553   1.270       .  A
O548       Ni566   1.910       .  S
O548        C550   1.269       .  A
Ni549       O552   1.919       .  S
Ni549       O554   1.910       .  S
C550        O560   1.269       .  A
C550        C638   1.477       .  S
O551       Ni567   1.921       .  S
O551        C557   1.278       .  A
O552        C557   1.277       .  A
C553        C619   1.479       .  S
O554        C556   1.271       .  A
O555       Ni566   1.920       .  S
C556        O562   1.273       .  A
C556        C628   1.481       .  S
C557        C641   1.472       .  S
H558        O559   0.966       .  S
O559       Ni567   1.914       .  S
O559       Ni561   1.901       .  S
O559       Ni566   1.906       .  S
O560       Ni561   1.922       .  S
Ni561       O565   1.894       .  S
Ni561       O563   1.910       .  S
O562       Ni567   1.931       .  S
C564        O565   1.263       .  A
C564        C616   1.468       .  S
C569        C821   1.476   1_545  S
C569        C608   1.523       .  S
C569        C611   1.526       .  S
C569        C620   1.521       .  S
C570        C606   1.476       .  S
C570        C598   1.524       .  S
C570        C602   1.519       .  S
C570        C615   1.519       .  S
O571       Ni577   1.927       .  S
O571        C592   1.272       .  A
O572        C581   1.268       .  A
O573       Ni577   1.901       .  S
O573       Ni811   1.900   1_545  S
O573        H812   0.966       .  S
C574        O591   1.278       .  A
C574        O799   1.277   1_545  A
C574        C607   1.478       .  S
O575       Ni594   1.912   1_455  S
O576        C578   1.268       .  A
Ni577       O796   1.926       .  S
C578        O588   1.269       .  A
C578        C597   1.475       .  S
O579       Ni595   1.922       .  S
O579        C585   1.278       .  A
O580       Ni793   1.919       .  S
O580        C585   1.276       .  A
C581        C631   1.475       .  S
O582        C584   1.270       .  A
O583       Ni594   1.913       .  S
O583        C790   1.276       .  A
C584        O806   1.275   1_545  A
C584        C612   1.475       .  S
C585        C601   1.471       .  S
O587       Ni594   1.900   1_554  S
O588       Ni805   1.924       .  S
Ni589       O804   1.929       .  S
Ni589       O593   1.911       .  S
O590        C800   1.270       .  A
C592        C645   1.472       .  S
Ni595       O789   1.905       .  S
H596        O789   0.966       .  S
C597        C598   1.347       .  D
C597        H599   1.087       .  S
C598        H600   1.088       .  S
C601        C602   1.351       .  D
C601        H603   1.087       .  S
C602        H604   1.088       .  S
C605        C785   1.477       .  S
C605        C606   1.206       .  T
C607        C608   1.350       .  D
C607        H609   1.086       .  S
C608        H610   1.089   1_545  S
C611        C612   1.353       .  D
C611        H613   1.088       .  S
C612        H830   1.085   1_545  S
H614        C828   1.085       .  S
C615        C616   1.343       .  D
C615        H617   1.088       .  S
C616        H618   1.087       .  S
C619        C620   1.352       .  D
C619        H621   1.086       .  S
C620        H622   1.088       .  S
C623        C624   1.344       .  D
C623        H625   1.089       .  S
C624        H626   1.087       .  S
C627        C628   1.350       .  D
C627        H629   1.088       .  S
C628        H630   1.085       .  S
C631        C632   1.350       .  D
C631        H633   1.087       .  S
C632        H634   1.088       .  S
C637        C638   1.348       .  D
C637        H639   1.088       .  S
C638        H640   1.085       .  S
C641        C642   1.350       .  D
C641        H643   1.086       .  S
C642        H644   1.089       .  S
C645        C646   1.347       .  D
C645        H647   1.087       .  S
C649        C744   1.474   1_554  S
C649        C853   1.522   1_554  S
C649        C750   1.519       .  S
C649        C754   1.520       .  S
C650        C743   1.473   1_556  S
C650        C839   1.517       .  S
C650        C735   1.526   1_556  S
C650        C740   1.518       .  S
O651       Ni657   1.931       .  S
O651        C672   1.274       .  A
O652       Ni675   1.909       .  S
O652        C661   1.267       .  A
O653       Ni657   1.905       .  S
O653       Ni675   1.903       .  S
O653       Ni669   1.916       .  S
O653        H676   0.966       .  S
C654        O671   1.278       .  A
C654        O663   1.278       .  A
C654        C732   1.477       .  S
O655       Ni674   1.920       .  S
O655        C661   1.270       .  A
O656       Ni674   1.908       .  S
O656        C658   1.269       .  A
Ni657       O660   1.924       .  S
Ni657       O662   1.911       .  S
C658        O668   1.271       .  A
C658        C746   1.480       .  S
O659       Ni675   1.916       .  S
O659        C665   1.276       .  A
O660        C665   1.277       .  A
C661        C727   1.472       .  S
O662        C664   1.271       .  A
O663       Ni674   1.920       .  S
C664        O670   1.269       .  A
C664        C736   1.477       .  S
C665        C749   1.472       .  S
H666        O667   0.966       .  S
O667       Ni675   1.915       .  S
O667       Ni669   1.896       .  S
O667       Ni674   1.898       .  S
O668       Ni669   1.928       .  S
Ni669       O673   1.903       .  S
Ni669       O671   1.927       .  S
O670       Ni675   1.922       .  S
C672        O673   1.267       .  A
C672        C724   1.474       .  S
C677        C716   1.523       .  S
C677        C719   1.528       .  S
C677        C728   1.514       .  S
C678        C714   1.477       .  S
C678        C706   1.530       .  S
C678        C710   1.518       .  S
C678        C723   1.518       .  S
O679       Ni685   1.926       .  S
O679        C700   1.271       .  A
O680        C689   1.268       .  A
O681       Ni685   1.905       .  S
O681       Ni805   1.915   1_554  S
C682        O699   1.286       .  A
C682        C715   1.480       .  S
O683       Ni702   1.921   1_455  S
O683        C797   1.269   1_455  A
O684        C686   1.270       .  A
C686        O696   1.273   1_565  A
C686        C705   1.483       .  S
O687       Ni703   1.924       .  S
O687        C693   1.278       .  A
O688        C693   1.276   1_545  A
C689        O791   1.269   1_654  A
C689        C739   1.474       .  S
O690        C692   1.270       .  A
O691       Ni702   1.915       .  S
C692        C720   1.478       .  S
C693        C709   1.472       .  S
H694        O803   0.966   1_554  S
O695       Ni702   1.905       .  S
O695        H802   0.967       .  S
Ni697       O701   1.906       .  S
Ni697       O789   1.914       .  S
C700        O809   1.265   1_554  A
C700        C753   1.470   1_554  S
O701        C808   1.267       .  A
C705        C706   1.353       .  D
C705        H707   1.085       .  S
C706        H708   1.087       .  S
C709        C710   1.350       .  D
C709        H711   1.087       .  S
C710        H712   1.089       .  S
C713        C714   1.207   1_545  T
C715        C716   1.359       .  D
C715        H717   1.086       .  S
C716        H718   1.088       .  S
C719        C720   1.354       .  D
C719        H721   1.087       .  S
C723        C724   1.345       .  D
C723        H725   1.088       .  S
C724        H726   1.087       .  S
C727        C728   1.346       .  D
C727        H729   1.087       .  S
C728        H730   1.088       .  S
C731        C758   1.523       .  S
C731        C732   1.350       .  D
C731        H733   1.089       .  S
C732        H734   1.086       .  S
C735        C736   1.348       .  D
C735        H737   1.088       .  S
C736        H738   1.085       .  S
C739        C740   1.349   1_554  D
C739        H741   1.087       .  S
C740        H742   1.088       .  S
C745        C757   1.528       .  S
C745        C746   1.351       .  D
C745        H747   1.088       .  S
C746        H748   1.085       .  S
C749        C750   1.347       .  D
C749        H751   1.087       .  S
C750        H752   1.089       .  S
C753        C754   1.346   1_556  D
C753        H755   1.087       .  S
C754        H864   1.088       .  S
H756        C862   1.088       .  S
C757        C852   1.481       .  S
C757        C858   1.523       .  S
C757        C862   1.519       .  S
C758        C851   1.484       .  S
C758        C843   1.526       .  S
C758        C848   1.524       .  S
O759       Ni765   1.932       .  S
O759        C780   1.272       .  A
O760       Ni783   1.921       .  S
O760        C769   1.271       .  A
O761       Ni765   1.907       .  S
O761       Ni783   1.911       .  S
O761       Ni777   1.914       .  S
O761        H784   0.966       .  S
C762        O779   1.274       .  A
C762        O771   1.278       .  A
C762        C840   1.470       .  S
O763       Ni782   1.918       .  S
O763        C769   1.269       .  A
O764       Ni782   1.906       .  S
O764        C766   1.268       .  A
Ni765       O768   1.920       .  S
Ni765       O770   1.909       .  S
C766        O776   1.269       .  A
C766        C854   1.473       .  S
O767       Ni783   1.924       .  S
O767        C773   1.278       .  A
O768        C773   1.275       .  A
C769        C835   1.477       .  S
O770        C772   1.272       .  A
O771       Ni782   1.921       .  S
C772        O778   1.273       .  A
C772        C844   1.483       .  S
C773        C857   1.476       .  S
H774        O775   0.966       .  S
O775       Ni783   1.917       .  S
O775       Ni777   1.901       .  S
O775       Ni782   1.904       .  S
O776       Ni777   1.922       .  S
Ni777       O781   1.902       .  S
Ni777       O779   1.913       .  S
O778       Ni783   1.933       .  S
C780        O781   1.265       .  A
C780        C832   1.475       .  S
C785        C824   1.523       .  S
C785        C827   1.521       .  S
C785        C836   1.518       .  S
C786        C822   1.474       .  S
C786        C814   1.525       .  S
C786        C818   1.522       .  S
C786        C831   1.524       .  S
O787       Ni793   1.928       .  S
O787        C808   1.272       .  A
O788        C797   1.273       .  A
O789       Ni793   1.903       .  S
C790        O807   1.281       .  A
C790        C823   1.478       .  S
O791       Ni810   1.922   1_455  S
O792        C794   1.268       .  A
C794        O804   1.271   1_565  A
C794        C813   1.477       .  S
O795       Ni811   1.919       .  S
O795        C801   1.278       .  A
O796        C801   1.279   1_545  A
C797        C847   1.481       .  S
O798        C800   1.267       .  A
O799       Ni810   1.918       .  S
C800        C828   1.474       .  S
C801        C817   1.473       .  S
O803       Ni810   1.907       .  S
Ni805       O809   1.900       .  S
C808        C861   1.474       .  S
C813        C814   1.349       .  D
C813        H815   1.087   1_565  S
C814        H816   1.088       .  S
C817        C818   1.348       .  D
C817        H819   1.087       .  S
C818        H820   1.089       .  S
C821        C822   1.205       .  T
C823        C824   1.352       .  D
C823        H825   1.086       .  S
C824        H826   1.088       .  S
C827        C828   1.350       .  D
C827        H829   1.087       .  S
C831        C832   1.347       .  D
C831        H833   1.088       .  S
C832        H834   1.087       .  S
C835        C836   1.352       .  D
C835        H837   1.086       .  S
C836        H838   1.088       .  S
C839        C840   1.344       .  D
C839        H841   1.089       .  S
C840        H842   1.087       .  S
C843        C844   1.349       .  D
C843        H845   1.088       .  S
C844        H846   1.086       .  S
C847        C848   1.355       .  D
C847        H849   1.086       .  S
C848        H850   1.088       .  S
C853        C854   1.345       .  D
C853        H855   1.088       .  S
C854        H856   1.087       .  S
C857        C858   1.352       .  D
C857        H859   1.086       .  S
C858        H860   1.088       .  S
C861        C862   1.347       .  D
C861        H863   1.087       .  S
