geometry optimzed in LAMMPS
_audit_creation_date              2020-11-30 
_audit_creation_method            'lammps2cif' 
_symmetry_space_group_name_H-M    'P1' 
_symmetry_Int_Tables_number       1 
_symmetry_cell_setting            triclinic 
loop_ 
_symmetry_equiv_pos_as_xyz 
  x,y,z 
_cell_length_a                    56.87218533 
_cell_length_b                    57.57992819666089 
_cell_length_c                    42.32125551922036 
_cell_angle_alpha                 90.47730135799283 
_cell_angle_beta                  91.34635976564134 
_cell_angle_gamma                 121.2552664636153 
loop_ 
_atom_site_label 
_atom_site_type_symbol 
_atom_site_fract_x 
_atom_site_fract_y 
_atom_site_fract_z 
_atom_site_charge 
C1          C  0.41239570  0.21795281  0.09753600     0.03600
C2          C  0.40971552  0.20265118  0.12468475    -0.12600
C3          C  0.41187793  0.17954353  0.12293994     0.01100
C4          C  0.41763904  0.17195530  0.09404625    -0.11100
C5          C  0.42122039  0.18704243  0.06691145     0.03600
C6          C  0.41808558  0.20978121  0.06846999    -0.10500
H7          H  0.40551048  0.20815784  0.14738222     0.09200
H8          H  0.42016787  0.15455974  0.09276499     0.06700
H9          H  0.42086924  0.22144244  0.04745649     0.06500
C10         C  0.23463533  0.80257939  0.37181251     0.03600
C11         C  0.21925776  0.78687499  0.34488685    -0.12600
C12         C  0.19378554  0.76279171  0.34780632     0.01100
C13         C  0.18381765  0.75416141  0.37802298    -0.11100
C14         C  0.19863984  0.76913716  0.40524310     0.03600
C15         C  0.22432400  0.79318129  0.40213770    -0.10500
H16         H  0.22697801  0.79320436  0.32155284     0.09200
H17         H  0.16407076  0.73562438  0.38049605     0.06700
H18         H  0.23556795  0.80506057  0.42310265     0.06500
C19         C  0.76102530  0.17149647  0.10479123     0.03600
C20         C  0.77365898  0.18672768  0.07755082    -0.12600
C21         C  0.79889202  0.21173650  0.08035928     0.01100
C22         C  0.81165287  0.22070546  0.11034445    -0.11100
C23         C  0.79958910  0.20596535  0.13746291     0.03600
C24         C  0.77403260  0.18170414  0.13472489    -0.10500
H25         H  0.76359315  0.17965906  0.05451502     0.09200
H26         H  0.83109734  0.23981705  0.11279987     0.06700
H27         H  0.76473003  0.17042112  0.15582269     0.06500
C28         C  0.58031874  0.75462263  0.35507163     0.03600
C29         C  0.57653838  0.76656753  0.32773134    -0.12600
C30         C  0.57347138  0.78919847  0.33043084     0.01100
C31         C  0.57552281  0.80053388  0.36059362    -0.11100
C32         C  0.57898564  0.78890670  0.38786353     0.03600
C33         C  0.58091093  0.76568764  0.38511847    -0.10500
H34         H  0.57499876  0.75786236  0.30447754     0.09200
H35         H  0.57419692  0.81856458  0.36304056     0.06700
H36         H  0.58383056  0.75687518  0.40626944     0.06500
C37         C  0.80510514  0.56053506  0.08934454     0.03600
C38         C  0.79352518  0.56229014  0.06015875    -0.12600
C39         C  0.77126467  0.56659392  0.05938479     0.01100
C40         C  0.76110511  0.56945467  0.08811386    -0.11100
C41         C  0.77192813  0.56729021  0.11725377     0.03600
C42         C  0.79373745  0.56256029  0.11776524    -0.10500
H43         H  0.80215815  0.56078168  0.03826026     0.09200
H44         H  0.74412131  0.57293797  0.08786763     0.06700
H45         H  0.80266615  0.56191639  0.14033524     0.06500
C46         C  0.17704311  0.40486435  0.36553954     0.03600
C47         C  0.18957256  0.40440554  0.39454924    -0.12600
C48         C  0.21102782  0.39899318  0.39508800     0.01100
C49         C  0.21938392  0.39362590  0.36645891    -0.11100
C50         C  0.20778000  0.39468107  0.33747798     0.03600
C51         C  0.18669797  0.40039481  0.33703791    -0.10500
H52         H  0.18267195  0.40832242  0.41646645     0.09200
H53         H  0.23588930  0.38944354  0.36656407     0.06700
H54         H  0.17761824  0.40067271  0.31446489     0.06500
O55         O  0.92686890  0.33277935  0.30045515    -0.80500
O56         O  0.97846698  0.42851344  0.40536114    -0.65100
O57         O  0.94415304  0.36081339  0.35846558    -1.11700
C58         C  0.86636674  0.37116965  0.36528360     1.06400
O59         O  0.94481460  0.40962907  0.43886455    -0.78400
O60         O  0.89716272  0.36278471  0.43006981    -0.65900
Ni61       Ni  0.96087712  0.36060212  0.31981621     1.34900
C62         C  0.89202825  0.33995866  0.41927036     0.85200
O63         O  0.99645883  0.39619482  0.38510993    -0.78900
O64         O  0.99780720  0.38733673  0.33420881    -0.89200
C65         C  0.96857131  0.42882107  0.43180392     0.84700
O66         O  0.95518696  0.38781070  0.30275568    -0.67400
O67         O  0.87871064  0.38724385  0.38896545    -0.86700
C68         C  0.96551689  0.41158698  0.31458838     0.85600
C69         C  0.00921595  0.39512308  0.36152516     1.07100
H70         H  0.92942944  0.40606515  0.36190672     0.38900
O71         O  0.92781347  0.39253997  0.37649566    -1.09300
O72         O  0.89622037  0.33600332  0.39085921    -0.66000
Ni73       Ni  0.90921501  0.35865536  0.35412268     1.26300
O74         O  0.97390508  0.41736851  0.34350444    -0.66200
O75         O  0.87560261  0.35835788  0.35045113    -0.78500
C76         C  0.90146296  0.31959882  0.30645111     0.85000
O77         O  0.89158754  0.32546683  0.32963906    -0.65700
Ni78       Ni  0.91220275  0.39797951  0.41284358     1.27400
Ni79       Ni  0.96236163  0.39509183  0.38111218     1.26100
H80         H  0.94285121  0.34675878  0.37194739     0.39500
O81         O  0.07108543  0.65399428  0.05733328    -0.80500
O82         O  0.00934823  0.55600746  0.15340070    -0.65100
O83         O  0.04842195  0.62465064  0.11175469    -1.11700
C84         C  0.12287615  0.60926830  0.12937918     1.06400
O85         O  0.04173354  0.57478548  0.19069561    -0.78400
O86         O  0.09191609  0.61821911  0.18936154    -0.65900
Ni87       Ni  0.03526431  0.62665534  0.07049327     1.34900
C88         C  0.09700928  0.64141893  0.18108029     0.85200
O89         O  0.99359083  0.58935027  0.12889342    -0.78900
O90         O  0.99712246  0.60130960  0.07852231    -0.89200
C91         C  0.01832867  0.55552485  0.18104402     0.84700
O92         O  0.03992088  0.59827520  0.05430791    -0.67400
O93         O  0.10788871  0.59168658  0.14954289    -0.86700
C94         C  0.02794883  0.57424801  0.06471516     0.85600
C95         C  0.98313296  0.59181836  0.10316807     1.07100
H96         H  0.06088844  0.57833895  0.11636027     0.38900
O97         O  0.06196087  0.59138649  0.13169741    -1.09300
O98         O  0.09321296  0.64669487  0.15293595    -0.66000
Ni99       Ni  0.08314125  0.62591778  0.11351677     1.26300
O100        O  0.01801870  0.56840862  0.09224440    -0.66200
O101        O  0.11651718  0.62499036  0.11546474    -0.78500
C102        C  0.09559107  0.66717835  0.06865608     0.85000
O103        O  0.10331409  0.66015330  0.09326440    -0.65700
Ni104      Ni  0.07449252  0.58339690  0.16934604     1.27400
Ni105      Ni  0.02765865  0.58986363  0.13120074     1.26100
H106        H  0.04916383  0.63857422  0.12536608     0.39500
O107        O  0.41023438  0.05665654  0.28434140    -0.80500
O108        O  0.45510980  0.01284123  0.39293670    -0.65100
O109        O  0.41885759  0.04208316  0.34485803    -1.11700
C110        C  0.50707204  0.12363822  0.35621938     1.06400
O111        O  0.47169484  0.04727786  0.42708297    -0.78400
O112        O  0.46843704  0.09188655  0.41921720    -0.65900
Ni113      Ni  0.40082164  0.02377740  0.30570637     1.34900
C114        C  0.44971931  0.09539134  0.40775227     0.85200
O115        O  0.40305268  0.99219161  0.37200302    -0.78900
O116        O  0.38721369  0.98788355  0.32218953    -0.89200
C117        C  0.46661847  0.02369482  0.41938544     0.84700
O118        O  0.43268103  0.02564616  0.28937786    -0.67400
O119        O  0.51178324  0.11239422  0.37937106    -0.86700
C120        C  0.44700132  0.01720980  0.30257732     0.85600
C121        C  0.38638118  0.97825030  0.34940400     1.07100
H122        H  0.48075737  0.06008646  0.34995814     0.38900
O123        O  0.46865802  0.06151098  0.36444398    -1.09300
O124        O  0.44102338  0.08986927  0.37907951    -0.66000
Ni125      Ni  0.45135230  0.07762803  0.34211690     1.26300
O126        O  0.44672140  0.01327237  0.33215908    -0.66200
O127        O  0.48450631  0.11255324  0.34001975    -0.78500
C128        C  0.41974077  0.08139124  0.29207683     0.85000
O129        O  0.43318031  0.09202984  0.31783494    -0.65700
Ni130      Ni  0.49054967  0.07918639  0.40171673     1.27400
Ni131      Ni  0.43635133  0.02651110  0.36839692     1.26100
H132        H  0.40557757  0.04286639  0.35793541     0.39500
O133        O  0.57849070  0.90978983  0.04175249    -0.80500
O134        O  0.54213720  0.96369306  0.14621021    -0.65100
O135        O  0.57470257  0.93040274  0.10018729    -1.11700
C136        C  0.48429098  0.85213961  0.10977262     1.06400
O137        O  0.52742529  0.93020930  0.17958099    -0.78400
O138        O  0.52137829  0.88106171  0.17226519    -0.65900
Ni139      Ni  0.58921423  0.94480085  0.05994162     1.34900
C140        C  0.54124673  0.87813973  0.16521926     0.85200
O141        O  0.59307586  0.98283033  0.12399114    -0.78900
O142        O  0.60396922  0.98216181  0.07368289    -0.89200
C143        C  0.53156641  0.95333822  0.17235388     0.84700
O144        O  0.55591601  0.94164042  0.04348241    -0.67400
O145        O  0.47964105  0.86632015  0.12915616    -0.86700
C146        C  0.54415066  0.95306934  0.05565097     0.85600
C147        C  0.60738832  0.99457774  0.10005009     1.07100
H148        H  0.51426051  0.91416225  0.10220952     0.38900
O149        O  0.52621319  0.91339989  0.11821855    -1.09300
O150        O  0.55327971  0.88556782  0.13888701    -0.66000
Ni151      Ni  0.54182988  0.89475714  0.09940314     1.26300
O152        O  0.54716550  0.95974614  0.08490471    -0.66200
O153        O  0.50788230  0.85995968  0.09853628    -0.78500
C154        C  0.57067625  0.88624929  0.05216051     0.85000
O155        O  0.55857083  0.87794585  0.07809851    -0.65700
Ni156      Ni  0.50404472  0.89858393  0.15362628     1.27400
Ni157      Ni  0.55913727  0.94833351  0.12198592     1.26100
H158        H  0.58892423  0.93066313  0.11341007     0.39500
C159        C  0.65710335  0.34663395  0.30526437     0.80700
N160        N  0.68393626  0.35411433  0.30882530    -0.77600
C161        C  0.69073877  0.33491749  0.31291977     0.83100
N162        N  0.67064580  0.30831559  0.31408065    -0.77600
C163        C  0.64380756  0.30078530  0.31074868     0.83200
N164        N  0.63712622  0.31998214  0.30638575    -0.79300
C165        C  0.33157183  0.62704197  0.10813020     0.80700
N166        N  0.35138899  0.65295204  0.10146454    -0.77600
C167        C  0.34449755  0.67182052  0.09521302     0.83100
N168        N  0.31775259  0.66465024  0.09529639    -0.77600
C169        C  0.29778774  0.63880328  0.10144739     0.83200
N170        N  0.30474789  0.62005651  0.10826715    -0.79300
O171        O  0.40110290  0.44951630  0.04355462    -0.80500
O172        O  0.32465631  0.41699478  0.15446133    -0.65100
O173        O  0.38956650  0.44905415  0.10673214    -1.11700
C174        C  0.38562875  0.36577917  0.11575689     1.06400
O175        O  0.33734501  0.39440878  0.18613167    -0.78400
O176        O  0.39112755  0.41291942  0.17878116    -0.65900
Ni177      Ni  0.39356469  0.47097016  0.07154865     1.34900
C178        C  0.41376761  0.42741892  0.16526761     0.85200
O179        O  0.35683336  0.46712515  0.13369422    -0.78900
O180        O  0.38640088  0.49408714  0.09720227    -0.89200
C181        C  0.32221466  0.40409036  0.17946306     0.84700
O182        O  0.35655289  0.45114359  0.05562943    -0.67400
O183        O  0.37700765  0.36677034  0.14296401    -0.86700
C184        C  0.33435387  0.43178921  0.06603278     0.85600
C185        C  0.37011822  0.48974932  0.11960707     1.07100
H186        H  0.34200762  0.38760159  0.11155891     0.38900
O187        O  0.35750679  0.40058833  0.12474840    -1.09300
O188        O  0.41611114  0.42708602  0.13540334    -0.66000
Ni189      Ni  0.38990605  0.41623474  0.09999339     1.26300
O190        O  0.33202283  0.42264590  0.09366111    -0.66200
O191        O  0.38910856  0.38254250  0.09425449    -0.78500
C192        C  0.42047918  0.44517004  0.04867456     0.85000
O193        O  0.42126471  0.43347532  0.07363029    -0.65700
Ni194      Ni  0.35786338  0.38255145  0.16226684     1.27400
Ni195      Ni  0.35674449  0.43356226  0.12986316     1.26100
H196        H  0.40446768  0.46081021  0.12135363     0.39500
O197        O  0.64864369  0.57453130  0.27208094    -0.80500
O198        O  0.56288858  0.53400090  0.38257484    -0.65100
O199        O  0.62762070  0.56964281  0.33301472    -1.11700
C200        C  0.61944327  0.48285898  0.33915513     1.06400
O201        O  0.58433831  0.51985924  0.41352353    -0.78400
O202        O  0.63014538  0.51925557  0.40342385    -0.65900
Ni203      Ni  0.62647612  0.58550278  0.29407372     1.34900
C204        C  0.65212721  0.53986269  0.39440033     0.85200
O205        O  0.59364755  0.58533730  0.36093091    -0.78900
O206        O  0.60565601  0.60001306  0.31162461    -0.89200
C207        C  0.56384038  0.52232925  0.40754830     0.84700
O208        O  0.59402255  0.55388800  0.27777655    -0.67400
O209        O  0.60188421  0.47697156  0.36054685    -0.86700
C210        C  0.57116316  0.53983106  0.29102320     0.85600
C211        C  0.59707576  0.60151250  0.33866886     1.07100
H212        H  0.58323502  0.50888614  0.33573700     0.38900
O213        O  0.59726987  0.52098125  0.35103201    -1.09300
O214        O  0.65440449  0.55029984  0.36748283    -0.66000
Ni215      Ni  0.63105246  0.53829376  0.32980221     1.26300
O216        O  0.56867823  0.54045926  0.32082993    -0.66200
O217        O  0.63323602  0.50621801  0.32698581    -0.78500
C218        C  0.66555498  0.56738822  0.28062982     0.85000
O219        O  0.66410887  0.55647314  0.30691961    -0.65700
Ni220      Ni  0.59335910  0.49912896  0.38622816     1.27400
Ni221      Ni  0.59464268  0.55257412  0.35674230     1.26100
H222        H  0.64247179  0.58356615  0.34617950     0.39500
C223        C  0.47887154  0.47407774  0.19890497     0.30200
C224        C  0.50719816  0.49330312  0.19938107    -0.36100
C225        C  0.51982704  0.50311974  0.22937034     0.16200
C226        C  0.50559754  0.49478261  0.25702422     0.22000
C227        C  0.47723512  0.47569017  0.25653205    -0.34300
C228        C  0.46464733  0.46575816  0.22656486     0.16100
O229        O  0.46301165  0.46178222  0.17357008    -0.26300
C230        C  0.43832163  0.44534435  0.18521338     0.05900
C231        C  0.43813164  0.44704750  0.21801842    -0.31200
O232        O  0.52161579  0.50645021  0.28243188    -0.23000
C233        C  0.54646365  0.52242922  0.27088856    -0.03000
C234        C  0.54653248  0.52117353  0.23802234    -0.17400
H235        H  0.51864765  0.49994200  0.17790689     0.20600
H236        H  0.46582340  0.46885869  0.27801624     0.19000
H237        H  0.42094500  0.43596890  0.23333087     0.18900
H238        H  0.56379196  0.53200211  0.22274616     0.14800
C239        C  0.51799265  0.48854356  0.46790200     0.30200
C240        C  0.50900022  0.47398569  0.49598882    -0.36100
C241        C  0.48068873  0.46767242  0.00315695     0.16200
C242        C  0.46487103  0.47033942  0.48538082     0.22000
C243        C  0.47375949  0.48460674  0.45721058    -0.34300
C244        C  0.50090657  0.49361295  0.44942372     0.16100
O245        O  0.54253510  0.49873411  0.45600767    -0.26300
C246        C  0.54120748  0.51060823  0.42969593     0.05900
C247        C  0.51578978  0.50813121  0.42439987    -0.31200
O248        O  0.44109366  0.46217950  0.49823982    -0.23000
C249        C  0.44193564  0.45452263  0.02524707    -0.03000
C250        C  0.46586082  0.45368412  0.02847972    -0.17400
H251        H  0.51958960  0.46896571  0.00762952     0.20600
H252        H  0.46061573  0.48899081  0.44280126     0.19000
H253        H  0.50906272  0.51530058  0.40462778     0.18900
H254        H  0.47194366  0.44518480  0.04742921     0.14800
C255        C  0.33530178  0.56962526  0.12661291     0.30200
C256        C  0.32507195  0.54227597  0.13376492    -0.36100
C257        C  0.34412158  0.53370310  0.13326542     0.16200
C258        C  0.37129528  0.55085201  0.12587750     0.22000
C259        C  0.38167425  0.57833749  0.11954410    -0.34300
C260        C  0.36266955  0.58689862  0.12017008     0.16100
O261        O  0.32075609  0.58143637  0.12355311    -0.26300
C262        C  0.33908945  0.60664927  0.11522642     0.05900
C263        C  0.36553181  0.61121967  0.11292153    -0.31200
O264        O  0.38450933  0.53783872  0.12227922    -0.23000
C265        C  0.36579311  0.51207736  0.12803098    -0.03000
C266        C  0.34034205  0.50833861  0.13540385    -0.17400
H267        H  0.30351357  0.52836366  0.13803545     0.20600
H268        H  0.40278025  0.59177451  0.11300179     0.19000
H269        H  0.38396949  0.62953078  0.10590405     0.18900
H270        H  0.32119269  0.48934692  0.13846291     0.14800
C271        C  0.65314984  0.40525258  0.30325940     0.30200
C272        C  0.66319965  0.43322073  0.30221892    -0.36100
C273        C  0.64494288  0.44131746  0.31150590     0.16200
C274        C  0.61875373  0.42317838  0.32143027     0.22000
C275        C  0.60846347  0.39521732  0.32156485    -0.34300
C276        C  0.62657517  0.38712026  0.31201591     0.16100
O277        O  0.66739424  0.39338984  0.29860540    -0.26300
C278        C  0.64948470  0.36732751  0.30397667     0.05900
C279        C  0.62373537  0.36224465  0.31207666    -0.31200
O280        O  0.60613901  0.43531859  0.33197119    -0.23000
C281        C  0.62429183  0.46154730  0.32828591    -0.03000
C282        C  0.64871429  0.46652546  0.31537726    -0.17400
H283        H  0.68410503  0.44773258  0.29588219     0.20600
H284        H  0.58814145  0.38087414  0.32976914     0.19000
H285        H  0.60609815  0.34325893  0.31913417     0.18900
H286        H  0.66705199  0.48593905  0.31112402     0.14800
C287        C  0.38553797  0.74259481  0.09321538     0.30200
C288        C  0.39243966  0.76921221  0.10061000    -0.36100
C289        C  0.42014237  0.78938296  0.09760103     0.16200
C290        C  0.43966133  0.78391753  0.08723794     0.22000
C291        C  0.43266008  0.75728958  0.07941891    -0.34300
C292        C  0.40506076  0.73697312  0.08327943     0.16100
O293        O  0.36151103  0.72045126  0.09748952    -0.26300
C294        C  0.36572991  0.70034631  0.09061760     0.05900
C295        C  0.39241747  0.70937072  0.08153775    -0.31200
O296        O  0.46474785  0.80554356  0.08881210    -0.23000
C297        C  0.46121162  0.82498327  0.10059531    -0.03000
C298        C  0.43387991  0.81610372  0.10638286    -0.17400
H299        H  0.37756915  0.77368059  0.10978372     0.20600
H300        H  0.44796254  0.75256946  0.07257072     0.19000
H301        H  0.40142160  0.69735158  0.07577653     0.18900
H302        H  0.42556736  0.82738032  0.11703629     0.14800
C303        C  0.60225766  0.23347863  0.33348712     0.30200
C304        C  0.59597424  0.20992061  0.34967489    -0.36100
C305        C  0.56856527  0.18847838  0.34694864     0.16200
C306        C  0.54865832  0.18996861  0.32935531     0.22000
C307        C  0.55484644  0.21375622  0.31357570    -0.34300
C308        C  0.58228854  0.23531755  0.31647625     0.16100
O309        O  0.62659735  0.25592687  0.33288928    -0.26300
C310        C  0.62216723  0.27249075  0.31552649     0.05900
C311        C  0.59495261  0.26086099  0.30479724    -0.31200
O312        O  0.52442142  0.16725794  0.32980684    -0.23000
C313        C  0.52890573  0.15115966  0.34811966    -0.03000
C314        C  0.55596453  0.16335889  0.35954238    -0.17400
H315        H  0.61139129  0.20842285  0.36345187     0.20600
H316        H  0.53937792  0.21534374  0.30003241     0.19000
H317        H  0.58586838  0.26998163  0.29068226     0.18900
H318        H  0.56501080  0.15490041  0.37486239     0.14800
C319        C  0.50961971  0.98201356  0.01900348     0.30200
C320        C  0.50183786  0.00135229  0.01548556    -0.36100
C321        C  0.48892039  0.00047042  0.48519146     0.16200
C322        C  0.48546190  0.98276345  0.46084629     0.22000
C323        C  0.49370709  0.96370069  0.46479113    -0.34300
C324        C  0.50571994  0.96427968  0.49451078     0.16100
O325        O  0.52295787  0.97993852  0.04369266    -0.26300
C326        C  0.52759380  0.96036526  0.03528833     0.05900
C327        C  0.51709756  0.94961530  0.00504983    -0.31200
O328        O  0.47607055  0.98770522  0.43440082    -0.23000
C329        C  0.47372996  0.00891860  0.44215267    -0.03000
C330        C  0.48142897  0.01758736  0.47340791    -0.17400
H331        H  0.50602968  0.01630824  0.03388038     0.20600
H332        H  0.49207144  0.95029814  0.44565671     0.19000
H333        H  0.52111456  0.93619577  0.49255439     0.18900
H334        H  0.48247303  0.03481076  0.48535696     0.14800
C335        C  0.50719820  0.99035863  0.21104101     0.30200
C336        C  0.49601442  0.00703696  0.21342719    -0.36100
C337        C  0.48469630  0.00701889  0.24257543     0.16200
C338        C  0.48473892  0.99194207  0.26775693     0.22000
C339        C  0.49582359  0.97525361  0.26534908    -0.34300
C340        C  0.50680134  0.97502276  0.23616042     0.16100
O341        O  0.51725006  0.98586178  0.18544526    -0.26300
C342        C  0.52321442  0.96734196  0.19439102     0.05900
C343        C  0.51710707  0.95986010  0.22564805    -0.31200
O344        O  0.47222904  0.99415696  0.29239128    -0.23000
C345        C  0.46380209  0.01067090  0.28283987    -0.03000
C346        C  0.47096329  0.01932299  0.25203423    -0.17400
H347        H  0.49542677  0.01856135  0.19367323     0.20600
H348        H  0.49521134  0.96271182  0.28460112     0.19000
H349        H  0.51891378  0.94458030  0.23834027     0.18900
H350        H  0.46618942  0.03227310  0.23841883     0.14800
C351        C  0.22760487  0.61262182  0.11256194     0.30200
C352        C  0.20198824  0.59617866  0.12615161    -0.36100
C353        C  0.18268830  0.60411735  0.12133435     0.16200
C354        C  0.18798573  0.62639365  0.10387823     0.22000
C355        C  0.21344583  0.64261135  0.08994192    -0.34300
C356        C  0.23291117  0.63498202  0.09526678     0.16100
O357        O  0.24942298  0.61032877  0.11624022    -0.26300
C358        C  0.26895806  0.63164501  0.10133203     0.05900
C359        C  0.25980983  0.64758742  0.08774599    -0.31200
O360        O  0.16754970  0.63097432  0.10390777    -0.23000
C361        C  0.14899995  0.61147175  0.12178130    -0.03000
C362        C  0.15726150  0.59410942  0.13314191    -0.17400
H363        H  0.19779293  0.57907794  0.14056080     0.20600
H364        H  0.21814566  0.66057181  0.07697563     0.19000
H365        H  0.27157514  0.66631390  0.07515474     0.18900
H366        H  0.14639308  0.57704384  0.14854363     0.14800
C367        C  0.80592639  0.37150112  0.34951500     0.30200
C368        C  0.78732381  0.38047684  0.35177668    -0.36100
C369        C  0.76159557  0.36396720  0.33646182     0.16200
C370        C  0.75453065  0.34005686  0.32055153     0.22000
C371        C  0.77330728  0.33141582  0.31772468    -0.34300
C372        C  0.79910936  0.34810331  0.33259173     0.16100
O373        O  0.83063423  0.38298937  0.36318567    -0.26300
C374        C  0.83973752  0.36684492  0.35452355     0.05900
C375        C  0.82111893  0.34499032  0.33526560    -0.31200
O376        O  0.72881473  0.32685169  0.30982483    -0.23000
C377        C  0.71946578  0.34278840  0.31835900    -0.03000
C378        C  0.73894513  0.36623396  0.33484960    -0.17400
H379        H  0.79235692  0.39873597  0.36501294     0.20600
H380        H  0.76798595  0.31270660  0.30534250     0.19000
H381        H  0.82317208  0.32868073  0.32560258     0.18900
H382        H  0.73636100  0.38196135  0.34529781     0.14800
C383        C  0.00762724  0.49058015  0.47409041     0.30200
C384        C  0.02341043  0.51901918  0.47804885    -0.36100
C385        C  0.02339024  0.52935234  0.50826646     0.16200
C386        C  0.01073916  0.51220961  0.02917797     0.22000
C387        C  0.99727984  0.48385068  0.02703940    -0.34300
C388        C  0.99345047  0.47426110  0.49891013     0.16100
O389        O  0.00215499  0.47661081  0.44717029    -0.26300
C390        C  0.98417753  0.45113488  0.45503498     0.05900
C391        C  0.97815448  0.44855651  0.48689055    -0.31200
O392        O  0.01186594  0.52647120  0.05422305    -0.23000
C393        C  0.02438229  0.55186439  0.04429444    -0.03000
C394        C  0.03156243  0.55418724  0.01275506    -0.17400
H395        H  0.03377811  0.53219067  0.45857353     0.20600
H396        H  0.98714949  0.47122806  0.04699003     0.19000
H397        H  0.96326902  0.43055715  0.49899940     0.18900
H398        H  0.04096309  0.57223247  0.99863173     0.14800
C399        C  0.98173263  0.49352654  0.21971119     0.30200
C400        C  0.96775669  0.46510103  0.22233391    -0.36100
C401        C  0.96889114  0.45541301  0.25241770     0.16200
C402        C  0.98256794  0.47249463  0.27815239     0.22000
C403        C  0.99614998  0.50072982  0.27564130    -0.34300
C404        C  0.99520999  0.51036119  0.24567389     0.16100
O405        O  0.98623399  0.50720435  0.19327861    -0.26300
C406        C  0.00276538  0.53304584  0.20268234     0.05900
C407        C  0.00878926  0.53606708  0.23501247    -0.31200
O408        O  0.98266988  0.45936916  0.30345815    -0.23000
C409        C  0.96891653  0.43345956  0.29394706    -0.03000
C410        C  0.95974718  0.42972840  0.26242331    -0.17400
H411        H  0.95785431  0.45154832  0.20207546     0.20600
H412        H  0.00775085  0.51430523  0.29537220     0.19000
H413        H  0.02299921  0.55446003  0.24832186     0.18900
H414        H  0.94877409  0.41092876  0.24866254     0.14800
C415        C  0.07576631  0.40943172  0.35017714     0.30200
C416        C  0.09677915  0.41117862  0.33197104    -0.36100
C417        C  0.11847735  0.41166965  0.34872893     0.16200
C418        C  0.11961406  0.41058821  0.38120817     0.22000
C419        C  0.09872184  0.40935819  0.39960042    -0.34300
C420        C  0.07682249  0.40880394  0.38276774     0.16100
O421        O  0.05241958  0.40594439  0.33895614    -0.26300
C422        C  0.03821945  0.40325350  0.36453881     0.05900
C423        C  0.05240575  0.40509567  0.39263311    -0.31200
O424        O  0.14078888  0.40895802  0.39153424    -0.23000
C425        C  0.15334546  0.40899702  0.36527141    -0.03000
C426        C  0.14032474  0.41094270  0.33797615    -0.17400
H427        H  0.09564846  0.41088957  0.30638871     0.20600
H428        H  0.09893572  0.40775502  0.42505234     0.19000
H429        H  0.04505728  0.40217799  0.41648234     0.18900
H430        H  0.14523449  0.41074122  0.31349732     0.14800
C431        C  0.27456660  0.41141269  0.51465614     0.30200
C432        C  0.25022188  0.41069929  0.50523254    -0.36100
C433        C  0.24253423  0.40510429  0.47288166     0.16200
C434        C  0.25769337  0.40030386  0.45172920     0.22000
C435        C  0.28168879  0.40085752  0.46104721    -0.34300
C436        C  0.28945609  0.40668099  0.49297714     0.16100
O437        O  0.28721570  0.41873090  0.54284730    -0.26300
C438        C  0.31051578  0.41925220  0.04428835     0.05900
C439        C  0.31087092  0.40802442  0.01536301    -0.31200
O440        O  0.24809559  0.39702609  0.42256000    -0.23000
C441        C  0.22634859  0.39975556  0.42437023    -0.03000
C442        C  0.22176551  0.40476892  0.45533113    -0.17400
H443        H  0.23875678  0.41525123  0.52162984     0.20600
H444        H  0.29408696  0.39801945  0.44422535     0.19000
H445        H  0.32685497  0.40515893  0.00627574     0.18900
H446        H  0.20612588  0.40846526  0.46363832     0.14800
C447        C  0.24480824  0.38312672  0.28136572     0.30200
C448        C  0.26428707  0.37667675  0.27247621    -0.36100
C449        C  0.27661127  0.38686485  0.24366490     0.16200
C450        C  0.27007487  0.40211093  0.22447987     0.22000
C451        C  0.25016181  0.40827984  0.23322619    -0.34300
C452        C  0.23791744  0.39823761  0.26240947     0.16100
O453        O  0.23357281  0.37848868  0.30909521    -0.26300
C454        C  0.21914939  0.39069183  0.30828881     0.05900
C455        C  0.22070836  0.40301786  0.27952784    -0.31200
O456        O  0.28516583  0.41037482  0.19905961    -0.23000
C457        C  0.30145432  0.40021148  0.20227531    -0.03000
C458        C  0.29702876  0.38551644  0.22962691    -0.17400
H459        H  0.27035299  0.36553940  0.28770884     0.20600
H460        H  0.24536724  0.42088070  0.21894072     0.19000
H461        H  0.21260923  0.41578789  0.27330769     0.18900
H462        H  0.30756536  0.37550011  0.23810044     0.14800
C463        C  0.91261411  0.56821933  0.11064531     0.30200
C464        C  0.88741852  0.55792451  0.12568085    -0.36100
C465        C  0.86622181  0.55807637  0.10799884     0.16200
C466        C  0.86947572  0.56745896  0.07757575     0.22000
C467        C  0.89441433  0.57725364  0.06238009    -0.34300
C468        C  0.91558820  0.57732173  0.08009213     0.16100
O469        O  0.93581495  0.57170731  0.12327258    -0.26300
C470        C  0.95374608  0.58312183  0.10033376     0.05900
C471        C  0.94216918  0.58696835  0.07302132    -0.31200
O472        O  0.84796272  0.56813945  0.06649848    -0.23000
C473        C  0.83054039  0.55919624  0.09012488    -0.03000
C474        C  0.84077770  0.55225981  0.11641607    -0.17400
H475        H  0.88484629  0.55129065  0.14987341     0.20600
H476        H  0.89747551  0.58533356  0.03883330     0.19000
H477        H  0.95215760  0.59624857  0.05128280     0.18900
H478        H  0.83156284  0.54529036  0.13910934     0.14800
C479        C  0.71588515  0.56660741  0.23446904     0.30200
C480        C  0.73394431  0.55829780  0.22447146    -0.36100
C481        C  0.74407406  0.56592721  0.19382827     0.16200
C482        C  0.73688163  0.58070411  0.17469217     0.22000
C483        C  0.71937821  0.58932144  0.18480698    -0.34300
C484        C  0.70924915  0.58165369  0.21506727     0.16100
O485        O  0.70210957  0.56008088  0.26097136    -0.26300
C486        C  0.68658377  0.57116563  0.25815157     0.05900
C487        C  0.69039084  0.58489672  0.23015585    -0.31200
O488        O  0.74647067  0.58369788  0.14615269    -0.23000
C489        C  0.76026159  0.57085138  0.14655601    -0.03000
C490        C  0.75974741  0.55955303  0.17582226    -0.17400
H491        H  0.73885408  0.54589444  0.23898041     0.20600
H492        H  0.71312411  0.60028641  0.16953891     0.19000
H493        H  0.67982691  0.59483865  0.22152224     0.18900
H494        H  0.76816718  0.54709912  0.18225355     0.14800
C495        C  0.71109267  0.55736906  0.44063977     0.30200
C496        C  0.73373674  0.55533881  0.45085244    -0.36100
C497        C  0.74167602  0.56278130  0.98085612     0.16200
C498        C  0.73140521  0.57388334  0.50185787     0.22000
C499        C  0.70914157  0.57621685  0.49163668    -0.34300
C500        C  0.69940360  0.56738386  0.46060997     0.16100
O501        O  0.69688505  0.54782186  0.41362153    -0.26300
C502        C  0.67597788  0.55186392  0.41650180     0.05900
C503        C  0.67642804  0.56381961  0.44528177    -0.31200
O504        O  0.74139841  0.57815954  0.53097271    -0.23000
C505        C  0.75780202  0.56827819  0.02952105    -0.03000
C506        C  0.76021273  0.55996824  0.99924363    -0.17400
H507        H  0.74122143  0.54654615  0.93386970     0.20600
H508        H  0.69908663  0.58299257  0.50744415     0.19000
H509        H  0.66108385  0.56766986  0.45432909     0.18900
H510        H  0.77251794  0.55159889  0.99212205     0.14800
C511        C  0.58384762  0.69560927  0.36540284     0.30200
C512        C  0.58213892  0.67351580  0.38164325    -0.36100
C513        C  0.58588977  0.65517030  0.36342481     0.16200
C514        C  0.59114462  0.65865746  0.33160906     0.22000
C515        C  0.59301058  0.68068044  0.31556060    -0.34300
C516        C  0.58909761  0.69876632  0.33361391     0.16100
O517        O  0.58041792  0.71491697  0.37730633    -0.26300
C518        C  0.58331939  0.73049639  0.35269764     0.05900
C519        C  0.58900752  0.72138915  0.32499117    -0.31200
O520        O  0.59472964  0.63980764  0.31912697    -0.23000
C521        C  0.59173098  0.62375142  0.34303390    -0.03000
C522        C  0.58608483  0.63221336  0.37133452    -0.17400
H523        H  0.57808960  0.67078507  0.40661333     0.20600
H524        H  0.59720112  0.68349182  0.29062177     0.19000
H525        H  0.59251760  0.72998563  0.30172000     0.18900
H526        H  0.58348516  0.62335507  0.39439332     0.14800
C527        C  0.59063565  0.83425243  0.45000150     0.30200
C528        C  0.59975815  0.86001136  0.46290760    -0.36100
C529        C  0.58930197  0.86071472  0.49213417     0.16200
C530        C  0.57091708  0.83777934  0.50801774     0.22000
C531        C  0.56217885  0.81169310  0.49528687    -0.34300
C532        C  0.57284127  0.81093233  0.46573608     0.16100
O533        O  0.59581957  0.82932954  0.42146644    -0.26300
C534        C  0.58163409  0.80242906  0.41862456     0.05900
C535        C  0.56703902  0.78974919  0.44554293    -0.31200
O536        O  0.55919895  0.84147164  0.02983510    -0.23000
C537        C  0.57570741  0.86840781  0.03211059    -0.03000
C538        C  0.59216303  0.88219840  0.50858054    -0.17400
H539        H  0.61309036  0.87832259  0.45025457     0.20600
H540        H  0.54723618  0.79337300  0.50681600     0.19000
H541        H  0.55272222  0.76830254  0.44875349     0.18900
H542        H  0.60404395  0.90335623  0.50221154     0.14800
C543        C  0.54775351  0.84729391  0.23314087     0.30200
C544        C  0.54184384  0.83855854  0.26424134    -0.36100
C545        C  0.55271035  0.82318687  0.27543233     0.16200
C546        C  0.56829401  0.81646993  0.25741454     0.22000
C547        C  0.57409748  0.82512346  0.22582147    -0.34300
C548        C  0.56332550  0.84093823  0.21453485     0.16100
O549        O  0.53918584  0.86167245  0.21837765    -0.26300
C550        C  0.54934111  0.86506461  0.18966840     0.05900
C551        C  0.56468931  0.85259870  0.18578629    -0.31200
O552        O  0.57716383  0.80268477  0.27371153    -0.23000
C553        C  0.56720733  0.80093442  0.30251190    -0.03000
C554        C  0.55160282  0.81311035  0.30451917    -0.17400
H555        H  0.52975690  0.84367759  0.27890493     0.20600
H556        H  0.58639212  0.82021030  0.21126944     0.19000
H557        H  0.57449742  0.85147553  0.16470916     0.18900
H558        H  0.54133987  0.81486911  0.32480823     0.14800
C559        C  0.69911334  0.10941671  0.11718367     0.30200
C560        C  0.67829661  0.08879279  0.13510758    -0.36100
C561        C  0.65954374  0.06456034  0.11855351     0.16200
C562        C  0.66126224  0.06103174  0.08658839     0.22000
C563        C  0.68177126  0.08173241  0.06865704    -0.34300
C564        C  0.70046415  0.10586428  0.08517622     0.16100
O565        O  0.71975898  0.13300163  0.12809151    -0.26300
C566        C  0.73451642  0.14488721  0.10271748     0.05900
C567        C  0.72328057  0.12881639  0.07530723    -0.31200
O568        O  0.64283981  0.03636040  0.07614183    -0.23000
C569        C  0.62890548  0.02372762  0.10160549    -0.03000
C570        C  0.63828349  0.04034565  0.12875230    -0.17400
H571        H  0.67728298  0.09118524  0.16033869     0.20600
H572        H  0.68350586  0.07891329  0.04368777     0.19000
H573        H  0.73130604  0.13279939  0.05176473     0.18900
H574        H  0.63120759  0.03504799  0.15260991     0.14800
C575        C  0.87266535  0.27201493  0.24413881     0.30200
C576        C  0.87360240  0.26005589  0.21571123    -0.36100
C577        C  0.84821504  0.24182095  0.20098796     0.16200
C578        C  0.82337957  0.23561938  0.21321517     0.22000
C579        C  0.82243401  0.24745177  0.24208633    -0.34300
C580        C  0.84803992  0.26589473  0.25693030     0.16100
O581        O  0.89415853  0.29093394  0.26043326    -0.26300
C582        C  0.88347925  0.29715313  0.28427616     0.05900
C583        C  0.85477589  0.28221411  0.28344494    -0.31200
O584        O  0.80237920  0.22031814  0.19342787    -0.23000
C585        C  0.81412411  0.21687389  0.16834791    -0.03000
C586        C  0.84253508  0.22954028  0.17206584    -0.17400
H587        H  0.89289186  0.26550137  0.20510185     0.20600
H588        H  0.80321579  0.24349169  0.25156506     0.19000
H589        H  0.84101779  0.28394943  0.29920249     0.18900
H590        H  0.85710224  0.23124407  0.15484507     0.14800
C591        C  0.85291595  0.28069853  0.46261159     0.30200
C592        C  0.82983065  0.25516003  0.46958636    -0.36100
C593        C  0.82748238  0.24747854  0.50147774     0.16200
C594        C  0.83923732  0.26604040  0.03037953     0.22000
C595        C  0.86969907  0.28903149  0.51760428    -0.34300
C596        C  0.87181933  0.29679725  0.48610122     0.16100
O597        O  0.85824360  0.29304686  0.43512254    -0.26300
C598        C  0.88070966  0.31732260  0.44141807     0.05900
C599        C  0.88992964  0.32068982  0.47273939    -0.31200
O600        O  0.83116547  0.25619863  0.05863014    -0.23000
C601        C  0.81237729  0.23003665  0.05337216    -0.03000
C602        C  0.80826932  0.22293174  0.02116097    -0.17400
H603        H  0.81433080  0.24264382  0.45168135     0.20600
H604        H  0.86891414  0.30837483  0.04268321     0.19000
H605        H  0.90681267  0.33869375  0.48429685     0.18900
H606        H  0.78839779  0.20862271  0.50662741     0.14800
C607        C  0.33168241  0.91072954  0.34341923     0.30200
C608        C  0.31038290  0.88755692  0.32772643    -0.36100
C609        C  0.29295108  0.86602555  0.34692562     0.16200
C610        C  0.29599992  0.86705191  0.37938650     0.22000
C611        C  0.31757342  0.89026733  0.39517261    -0.34300
C612        C  0.33521977  0.91189851  0.37589279     0.16100
O613        O  0.34949313  0.93356552  0.33003675    -0.26300
C614        C  0.36494738  0.94968408  0.35411523     0.05900
C615        C  0.35711467  0.93727082  0.38328312    -0.31200
O616        O  0.27635911  0.84483576  0.39254320    -0.23000
C617        C  0.26056812  0.82930155  0.36809977    -0.03000
C618        C  0.27019389  0.84170183  0.33915331    -0.17400
H619        H  0.30727970  0.88657999  0.30230254     0.20600
H620        H  0.32011793  0.89157385  0.42066968     0.19000
H621        H  0.36563226  0.94600708  0.40652012     0.18900
H622        H  0.26149444  0.83461278  0.31557295     0.14800
C623        C  0.17648201  0.74302973  0.48113974     0.30200
C624        C  0.17692012  0.73148204  0.51031817    -0.36100
C625        C  0.15151971  0.71679646  0.52542851     0.16200
C626        C  0.12760522  0.71393972  0.51256396     0.22000
C627        C  0.12724959  0.72568749  0.48393353    -0.34300
C628        C  0.15234317  0.74007204  0.46894173     0.16100
O629        O  0.19691526  0.75520333  0.46121757    -0.26300
C630        C  0.18544319  0.75995116  0.43613223     0.05900
C631        C  0.15784167  0.75103808  0.43990671    -0.31200
O632        O  0.10572975  0.69727695  0.52833286    -0.23000
C633        C  0.11502264  0.69140580  0.05134407    -0.03000
C634        C  0.14320256  0.70190974  0.04930933    -0.17400
H635        H  0.19539066  0.73271438  0.51976956     0.20600
H636        H  0.10833025  0.72260103  0.47322699     0.19000
H637        H  0.14343913  0.75112075  0.42278092     0.18900
H638        H  0.15549063  0.69496985  0.06104474     0.14800
C639        C  0.13404035  0.69931485  0.23055823     0.30200
C640        C  0.15540157  0.72578897  0.23927324    -0.36100
C641        C  0.16106224  0.73129865  0.27195496     0.16200
C642        C  0.14638979  0.71220927  0.29430700     0.22000
C643        C  0.12497448  0.68604498  0.28569820    -0.34300
C644        C  0.11964725  0.68044115  0.25326458     0.16100
O645        O  0.12695959  0.68867965  0.20153582    -0.26300
C646        C  0.10795218  0.66271553  0.20603061     0.05900
C647        C  0.10259664  0.65660398  0.23770518    -0.31200
O648        O  0.15579501  0.72093773  0.32331297    -0.23000
C649        C  0.17701536  0.74603643  0.31994389    -0.03000
C650        C  0.18120873  0.75365803  0.28832840    -0.17400
H651        H  0.16750820  0.74061730  0.22184923     0.19000
H652        H  0.11398594  0.67072528  0.30310545     0.19000
H653        H  0.08922115  0.63696853  0.24786182     0.18900
H654        H  0.19690666  0.77260738  0.27862863     0.14800
C655        C  0.39630677  0.31111231  0.12152698     0.30200
C656        C  0.39723516  0.29043060  0.13756261    -0.36100
C657        C  0.40264725  0.27345506  0.11932523     0.16200
C658        C  0.40691741  0.27636580  0.08735980     0.22000
C659        C  0.40615884  0.29737840  0.07114563    -0.34300
C660        C  0.40070530  0.31459000  0.08954840     0.16100
O661        O  0.39084707  0.32864283  0.13429194    -0.26300
C662        C  0.39179133  0.34399677  0.11047439     0.05900
C663        C  0.39792751  0.33625519  0.08187575    -0.31200
O664        O  0.41109140  0.25749523  0.07520020    -0.23000
C665        C  0.40945028  0.24233691  0.09985554    -0.03000
C666        C  0.40427038  0.25167569  0.12784659    -0.17400
H667        H  0.39366241  0.28757479  0.16262507     0.20600
H668        H  0.40932245  0.29996213  0.04600014     0.19000
H669        H  0.39955594  0.34492179  0.05885678     0.18900
H670        H  0.40172884  0.24376354  0.15138806     0.14800
C671        C  0.41448749  0.15430763  0.19763679     0.30200
C672        C  0.42331006  0.15571292  0.22935215    -0.36100
C673        C  0.41766860  0.13102155  0.24245467     0.16200
C674        C  0.40395441  0.10672624  0.22549756     0.22000
C675        C  0.39496645  0.10528311  0.19408078    -0.34300
C676        C  0.40097757  0.12989092  0.18093433     0.16100
O677        O  0.41929243  0.17501121  0.17986713    -0.26300
C678        C  0.40896346  0.16362876  0.15141585     0.05900
C679        C  0.39721459  0.13558108  0.15083468    -0.31200
O680        O  0.40234299  0.08643298  0.24126882    -0.23000
C681        C  0.41521648  0.09761985  0.26880006    -0.03000
C682        C  0.42514100  0.12539170  0.27106254    -0.17400
H683        H  0.43468620  0.17482203  0.24245519     0.20600
H684        H  0.38496907  0.08640540  0.18041934     0.19000
H685        H  0.38798039  0.12151909  0.13086857     0.18900
H686        H  0.43707136  0.13946656  0.29028357     0.14800
C687        C  0.42759675  0.15966803  0.99524592     0.30200
C688        C  0.40613834  0.11165173  0.49783173    -0.36100
C689        C  0.41885478  0.11269646  0.46948541     0.16200
C690        C  0.43262872  0.13602513  0.45220768     0.22000
C691        C  0.46765783  0.15460399  0.99894294    -0.34300
C692        C  0.45130146  0.16414287  0.01064683     0.16100
O693        O  0.41445603  0.16877003  0.01194637    -0.26300
C694        C  0.43017745  0.17935532  0.03817884     0.05900
C695        C  0.45327786  0.17694747  0.03852950    -0.31200
O696        O  0.44441745  0.13274643  0.42739034    -0.23000
C697        C  0.43805249  0.10700472  0.42887902    -0.03000
C698        C  0.42238999  0.09363821  0.45470811    -0.17400
H699        H  0.39620023  0.09346822  0.51169384     0.20600
H700        H  0.48582645  0.15775211  0.01174543     0.19000
H701        H  0.46838268  0.18231324  0.05759392     0.18900
H702        H  0.41548972  0.07317912  0.46209800     0.14800
C703        C  0.40874166  0.21619289  0.59707653     0.03600
C704        C  0.40994074  0.20383158  0.62524849    -0.12600
C705        C  0.40955210  0.17936865  0.62432795     0.01100
C706        C  0.40867612  0.16745468  0.59505994    -0.11100
C707        C  0.40918919  0.18004244  0.56663734     0.03600
C708        C  0.40938613  0.20467855  0.56769857    -0.10500
H709        H  0.41034839  0.21274658  0.64803931     0.09200
H710        H  0.40857912  0.14858194  0.59450897     0.06700
H711        H  0.40883797  0.21414426  0.54591106     0.06500
C712        C  0.23213733  0.80730688  0.87426592     0.03600
C713        C  0.21609985  0.79186735  0.84764651    -0.12600
C714        C  0.18951712  0.76942022  0.85089958     0.01100
C715        C  0.17901173  0.76224320  0.88121183    -0.11100
C716        C  0.19490866  0.77685071  0.90810739     0.03600
C717        C  0.22160244  0.79917667  0.90462447    -0.10500
H718        H  0.22436607  0.79697835  0.82434804     0.09200
H719        H  0.15848939  0.74484418  0.88402601     0.06700
H720        H  0.23368622  0.81066680  0.92541141     0.06500
C721        C  0.76248924  0.17504700  0.60167128     0.03600
C722        C  0.77574295  0.18910733  0.57402654    -0.12600
C723        C  0.80137660  0.21381635  0.57633813     0.01100
C724        C  0.81369013  0.22372426  0.60642629    -0.11100
C725        C  0.80078400  0.21026906  0.63390004     0.03600
C726        C  0.77493901  0.18636918  0.63148676    -0.10500
H727        H  0.76614834  0.18096242  0.55100707     0.09200
H728        H  0.83345437  0.24250126  0.60872431     0.06700
H729        H  0.76518871  0.17590835  0.65285738     0.06500
C730        C  0.57222260  0.75056558  0.85018035     0.03600
C731        C  0.57018742  0.76447351  0.82375790    -0.12600
C732        C  0.57024489  0.78877734  0.82814691     0.01100
C733        C  0.57364025  0.79965180  0.85882386    -0.11100
C734        C  0.57523628  0.78598899  0.88509282     0.03600
C735        C  0.57414455  0.76134580  0.88081860    -0.10500
H736        H  0.56803662  0.75635906  0.80001997     0.09200
H737        H  0.57451836  0.81875593  0.86243730     0.06700
H738        H  0.57556048  0.75101877  0.90140562     0.06500
C739        C  0.80717265  0.56512214  0.59307129     0.03600
C740        C  0.79596975  0.56600157  0.56311395    -0.12600
C741        C  0.77318186  0.56949481  0.56098700     0.01100
C742        C  0.76199210  0.57214272  0.58892954    -0.11100
C743        C  0.77252134  0.57103503  0.61859325     0.03600
C744        C  0.79494102  0.56730889  0.62062811    -0.10500
H745        H  0.80522147  0.56446014  0.54174561     0.09200
H746        H  0.74445037  0.57475352  0.58769300     0.06700
H747        H  0.80352861  0.56740330  0.64370450     0.06500
C748        C  0.18315299  0.41154646  0.86950441     0.03600
C749        C  0.19425772  0.40928153  0.89863117    -0.12600
C750        C  0.21578455  0.40399247  0.89942309     0.01100
C751        C  0.22588197  0.40077731  0.87091537    -0.11100
C752        C  0.21574358  0.40375277  0.84186679     0.03600
C753        C  0.19461648  0.40942845  0.84119651    -0.10500
H754        H  0.18576845  0.41108409  0.92048433     0.09200
H755        H  0.24241792  0.39662732  0.87125923     0.06700
H756        H  0.18672787  0.41126924  0.81852150     0.06500
O757        O  0.92546950  0.32880865  0.80221741    -0.80500
O758        O  0.97950490  0.42418916  0.90598591    -0.65100
O759        O  0.94389855  0.35604338  0.86052161    -1.11700
C760        C  0.86806333  0.36997641  0.86446455     1.06400
O761        O  0.94541278  0.40703576  0.93899367    -0.78400
O762        O  0.89576188  0.36198983  0.93044177    -0.65900
Ni763      Ni  0.96010634  0.35514271  0.82174975     1.34900
C764        C  0.89088192  0.33862553  0.92219200     0.85200
O765        O  0.99645810  0.39073628  0.88717118    -0.78900
O766        O  0.99749142  0.38004319  0.83673733    -0.89200
C767        C  0.96955911  0.42542381  0.93196608     0.84700
O768        O  0.95690479  0.38386547  0.80402825    -0.67400
O769        O  0.88142546  0.38763875  0.88650554    -0.86700
C770        C  0.96835220  0.40774144  0.81590036     0.85600
C771        C  0.00905896  0.38878715  0.86390212     1.07100
H772        H  0.93080100  0.40192447  0.86117965     0.38900
O773        O  0.92874803  0.38895366  0.87684517    -1.09300
O774        O  0.89643894  0.33334826  0.89495344    -0.66000
Ni775      Ni  0.90911174  0.35424058  0.85646302     1.26300
O776        O  0.97588661  0.41286766  0.84503591    -0.66200
O777        O  0.87565874  0.35460316  0.85237726    -0.78500
C778        C  0.90034832  0.31488578  0.80943136     0.85000
O779        O  0.89094695  0.32016137  0.83362186    -0.65700
Ni780      Ni  0.91371710  0.39683891  0.91185420     1.27400
Ni781      Ni  0.96283636  0.39056278  0.88245830     1.26100
H782        H  0.94251264  0.34206181  0.87420794     0.39500
O783        O  0.07105006  0.65380203  0.56200400    -0.80500
O784        O  0.01125896  0.55696448  0.66041191    -0.65100
O785        O  0.04924435  0.62529199  0.61729227    -1.11700
C786        C  0.12538152  0.61288228  0.63830930     1.06400
O787        O  0.04322762  0.57800002  0.69737732    -0.78400
O788        O  0.09249235  0.62225293  0.69587042    -0.65900
Ni789      Ni  0.03550726  0.62679350  0.57620716     1.34900
C790        C  0.09763661  0.64508121  0.68608833     0.85200
O791        O  0.99440159  0.58936553  0.63525346    -0.78900
O792        O  0.99751959  0.60138098  0.58496936    -0.89200
C793        C  0.02092512  0.55718043  0.68790648     0.84700
O794        O  0.04022528  0.59850113  0.56022793    -0.67400
O795        O  0.11069237  0.59598364  0.65918465    -0.86700
C796        C  0.02887063  0.57462565  0.57092393     0.85600
C797        C  0.98369370  0.59174549  0.60969889     1.07100
H798        H  0.06290655  0.57973166  0.62419238     0.38900
O799        O  0.06375923  0.59316800  0.63875403    -1.09300
O800        O  0.09447846  0.64945339  0.65735496    -0.66000
Ni801      Ni  0.08437488  0.62719765  0.61917550     1.26300
O802        O  0.01968619  0.56888206  0.59884132    -0.66200
O803        O  0.11814952  0.62703728  0.62227507    -0.78500
C804        C  0.09598282  0.66675270  0.57191657     0.85000
O805        O  0.10416069  0.66063562  0.59693123    -0.65700
Ni806      Ni  0.07659022  0.58701419  0.67751774     1.27400
Ni807      Ni  0.02894126  0.59070516  0.63759989     1.26100
H808        H  0.04984587  0.63925522  0.63071265     0.39500
O809        O  0.41040581  0.06001837  0.78809502    -0.80500
O810        O  0.45360067  0.01219520  0.89450985    -0.65100
O811        O  0.42012316  0.04472989  0.84728793    -1.11700
C812        C  0.51307263  0.12017766  0.85066886     1.06400
O813        O  0.47406289  0.04842783  0.92616967    -0.78400
O814        O  0.48052881  0.09767591  0.91542547    -0.65900
Ni815      Ni  0.40003833  0.02669118  0.80908286     1.34900
C816        C  0.46094530  0.10116410  0.90744266     0.85200
O817        O  0.40161170  0.99463371  0.87521376    -0.78900
O818        O  0.38549629  0.99067809  0.82557568    -0.89200
C819        C  0.46654340  0.02380046  0.92021971     0.84700
O820        O  0.43055500  0.02677790  0.79140817    -0.67400
O821        O  0.51855745  0.10758628  0.87148763    -0.86700
C822        C  0.44401486  0.01697736  0.80367815     0.85600
C823        C  0.38467508  0.98092807  0.85272129     1.07100
H824        H  0.47989922  0.05720074  0.84768127     0.38900
O825        O  0.46981718  0.06039196  0.86342860    -1.09300
O826        O  0.44745554  0.09251741  0.88119659    -0.66000
Ni827      Ni  0.45425812  0.07864961  0.84284554     1.26300
O828        O  0.44326910  0.01178441  0.83300529    -0.66200
O829        O  0.48899703  0.11176458  0.83905500    -0.78500
C830        C  0.42280757  0.08525966  0.79511075     0.85000
O831        O  0.43785399  0.09549576  0.81998631    -0.65700
Ni832      Ni  0.49540370  0.07759334  0.89776600     1.27400
Ni833      Ni  0.43613623  0.02729733  0.86993186     1.26100
H834        H  0.40814881  0.04710094  0.86101206     0.39500
O835        O  0.57603315  0.91117474  0.54386864    -0.80500
O836        O  0.54265820  0.96824310  0.64624555    -0.65100
O837        O  0.57410090  0.93285685  0.60219902    -1.11700
C838        C  0.48335642  0.85520956  0.61341103     1.06400
O839        O  0.52639870  0.93525245  0.68052083    -0.78400
O840        O  0.52040881  0.88602772  0.67488767    -0.65900
Ni841      Ni  0.58969408  0.94650969  0.56222310     1.34900
C842        C  0.53994237  0.88250622  0.66803946     0.85200
O843        O  0.59361312  0.98613600  0.62491742    -0.78900
O844        O  0.60681408  0.98402815  0.57610424    -0.89200
C845        C  0.53209453  0.95879660  0.67266259     0.84700
O846        O  0.55806503  0.94562113  0.54452822    -0.67400
O847        O  0.47866072  0.87010321  0.63156601    -0.86700
C848        C  0.54532729  0.95607243  0.55635178     0.85600
C849        C  0.60943269  0.99702868  0.60175267     1.07100
H850        H  0.51400243  0.91783919  0.60332827     0.38900
O851        O  0.52572094  0.91704575  0.61962916    -1.09300
O852        O  0.55176947  0.88893406  0.64154643    -0.66000
Ni853      Ni  0.54085826  0.89752999  0.60157850     1.26300
O854        O  0.54768155  0.96277718  0.58549178    -0.66200
O855        O  0.50673533  0.86294421  0.60161371    -0.78500
C856        C  0.56903592  0.88796124  0.55447009     0.85000
O857        O  0.55740425  0.87989345  0.58079549    -0.65700
Ni858      Ni  0.50316165  0.90312037  0.65500013     1.27400
Ni859      Ni  0.55915107  0.95179016  0.62309296     1.26100
H860        H  0.58792659  0.93289280  0.61591717     0.39500
C861        C  0.65740547  0.34591380  0.82429380     0.80700
N862        N  0.68451004  0.35414914  0.82509555    -0.77600
C863        C  0.69236122  0.33561082  0.82371416     0.83100
N864        N  0.67304022  0.30875902  0.82169204    -0.77600
C865        C  0.64591530  0.30034438  0.82081896     0.83200
N866        N  0.63805663  0.31895382  0.82217455    -0.79300
C867        C  0.33189447  0.62721694  0.60706351     0.80700
N868        N  0.35200432  0.65320895  0.60128268    -0.77600
C869        C  0.34561055  0.67264500  0.59693021     0.83100
N870        N  0.31905494  0.66593749  0.59790086    -0.77600
C871        C  0.29880127  0.64005036  0.60328700     0.83200
N872        N  0.30527070  0.62071271  0.60838889    -0.79300
O873        O  0.40208135  0.44805051  0.54236495    -0.80500
O874        O  0.32224175  0.41588977  0.65076899    -0.65100
O875        O  0.38832362  0.44805489  0.60482992    -1.11700
C876        C  0.38162087  0.36314891  0.61504915     1.06400
O877        O  0.33729479  0.39667290  0.68443524    -0.78400
O878        O  0.38885533  0.40834349  0.67836897    -0.65900
Ni879      Ni  0.39305033  0.46931138  0.56885805     1.34900
C880        C  0.41165374  0.42377034  0.66564947     0.85200
O881        O  0.35489833  0.46607577  0.62991710    -0.78900
O882        O  0.38443532  0.49215971  0.59285237    -0.89200
C883        C  0.32107637  0.40484906  0.67693299     0.84700
O884        O  0.35657931  0.44891053  0.55146919    -0.67400
O885        O  0.36990727  0.36234795  0.64063384    -0.86700
C886        C  0.33372089  0.43043700  0.56160548     0.85600
C887        C  0.36819474  0.48832663  0.61516234     1.07100
H888        H  0.34097092  0.38702635  0.60873535     0.38900
O889        O  0.35594387  0.39982769  0.62266961    -1.09300
O890        O  0.41427947  0.42627745  0.63588121    -0.66000
Ni891      Ni  0.38924878  0.41545735  0.59951893     1.26300
O892        O  0.33050905  0.42180509  0.58967731    -0.66200
O893        O  0.38897017  0.38199285  0.59510837    -0.78500
C894        C  0.42123878  0.44361244  0.54880167     0.85000
O895        O  0.42159626  0.43271604  0.57460723    -0.65700
Ni896      Ni  0.35418653  0.38110363  0.66044358     1.27400
Ni897      Ni  0.35477561  0.43255536  0.62674902     1.26100
H898        H  0.40282943  0.46000737  0.61976878     0.39500
O899        O  0.64701046  0.57677540  0.77152995    -0.80500
O900        O  0.56160374  0.53569596  0.88230788    -0.65100
O901        O  0.62505260  0.56923139  0.83115622    -1.11700
C902        C  0.61664482  0.48228656  0.84258850     1.06400
O903        O  0.58409504  0.52362398  0.91435145    -0.78400
O904        O  0.62969889  0.52269348  0.90406129    -0.65900
Ni905      Ni  0.62154647  0.58374570  0.79201637     1.34900
C906        C  0.65168106  0.54183123  0.89291558     0.85200
O907        O  0.59223461  0.58595851  0.85894715    -0.78900
O908        O  0.59687664  0.59458509  0.80759580    -0.89200
C909        C  0.56319765  0.52530454  0.90797606     0.84700
O910        O  0.59170562  0.54947455  0.77741660    -0.67400
O911        O  0.60042292  0.47815832  0.86499975    -0.86700
C912        C  0.56893379  0.53580153  0.79096673     0.85600
C913        C  0.59190630  0.59924268  0.83529118     1.07100
H914        H  0.58050846  0.50829254  0.83781879     0.38900
O915        O  0.59518421  0.52123350  0.85193412    -1.09300
O916        O  0.65322321  0.55035740  0.86493269    -0.66000
Ni917      Ni  0.62785850  0.53720788  0.82868385     1.26300
O918        O  0.56628730  0.53925706  0.82023515    -0.66200
O919        O  0.62924362  0.50440918  0.82735169    -0.78500
C920        C  0.66245344  0.56758800  0.77868708     0.85000
O921        O  0.65963059  0.55402436  0.80331649    -0.65700
Ni922      Ni  0.59247835  0.50154119  0.88875040     1.27400
Ni923      Ni  0.59283207  0.55304832  0.85589929     1.26100
H924        H  0.64036196  0.58348418  0.84348285     0.39500
C925        C  0.47740081  0.46529651  0.70057842     0.30200
C926        C  0.50597473  0.48319146  0.70115310    -0.36100
C927        C  0.51848200  0.49375276  0.73096186     0.16200
C928        C  0.50396332  0.48720779  0.75843860     0.22000
C929        C  0.47537457  0.46894047  0.75792901    -0.34300
C930        C  0.46283132  0.45838206  0.72803850     0.16100
O931        O  0.46144921  0.45400682  0.67510326    -0.26300
C932        C  0.43629866  0.43952128  0.68633378     0.05900
C933        C  0.43590851  0.44138767  0.71914096    -0.31200
O934        O  0.51973120  0.50069546  0.78344154    -0.23000
C935        C  0.54465217  0.51598273  0.77174564    -0.03000
C936        C  0.54507438  0.51233573  0.73927383    -0.17400
H937        H  0.51756724  0.48897849  0.67974866     0.20600
H938        H  0.46365210  0.46382206  0.77921257     0.19000
H939        H  0.41828902  0.43205395  0.73412683     0.18900
H940        H  0.56233937  0.52257919  0.72388021     0.14800
C941        C  0.51696775  0.49107934  0.96750602     0.30200
C942        C  0.50722484  0.47502966  0.99435764    -0.36100
C943        C  0.48186364  0.46521014  0.50398070     0.16200
C944        C  0.46491075  0.47558531  0.98657085     0.22000
C945        C  0.47457209  0.49145777  0.95958946    -0.34300
C946        C  0.50112365  0.49887648  0.95085681     0.16100
O947        O  0.54109521  0.50011909  0.95506432    -0.26300
C948        C  0.54073233  0.51388347  0.93015617     0.05900
C949        C  0.51638607  0.51385223  0.92630684    -0.31200
O950        O  0.44134217  0.46770055  0.99985703    -0.23000
C951        C  0.44266396  0.45162263  0.52545926    -0.03000
C952        C  0.46751073  0.45268485  0.53028638    -0.17400
H953        H  0.52239517  0.47025516  0.51084739     0.20600
H954        H  0.46238659  0.49789437  0.94660837     0.19000
H955        H  0.51059272  0.52296219  0.90779296     0.18900
H956        H  0.47455626  0.44670138  0.55089347     0.14800
C957        C  0.33578091  0.56997165  0.62554603     0.30200
C958        C  0.32601078  0.54311479  0.63464844    -0.36100
C959        C  0.34425360  0.53375474  0.63118604     0.16200
C960        C  0.37023048  0.54980199  0.61949474     0.22000
C961        C  0.38024154  0.57679673  0.61128990    -0.34300
C962        C  0.36205652  0.58608250  0.61470612     0.16100
O963        O  0.32158228  0.58223172  0.62441674    -0.26300
C964        C  0.33912376  0.60652028  0.61292775     0.05900
C965        C  0.36464978  0.61007441  0.60663681    -0.31200
O966        O  0.38249462  0.53614987  0.61418767    -0.23000
C967        C  0.36443611  0.51106466  0.62296178    -0.03000
C968        C  0.34031912  0.50836861  0.63414668    -0.17400
H969        H  0.30523284  0.53005991  0.64245360     0.20600
H970        H  0.40031251  0.58925041  0.60136770     0.19000
H971        H  0.38222743  0.62747888  0.59658343     0.18900
H972        H  0.32172717  0.48994604  0.64058028     0.14800
C973        C  0.65264068  0.40397759  0.82301331     0.30200
C974        C  0.66192877  0.43141341  0.81809643    -0.36100
C975        C  0.64331182  0.43964369  0.82479199     0.16200
C976        C  0.61755815  0.42222448  0.83629858     0.22000
C977        C  0.60811834  0.39465840  0.84089095    -0.34300
C978        C  0.62655816  0.38628903  0.83352631     0.16100
O979        O  0.66681374  0.39209923  0.81853725    -0.26300
C980        C  0.64948202  0.36637234  0.82577082     0.05900
C981        C  0.62406470  0.36148200  0.83520519    -0.31200
O982        O  0.60434242  0.43474637  0.84304717    -0.23000
C983        C  0.62164983  0.46035735  0.83513957    -0.03000
C984        C  0.64615167  0.46457073  0.82346457    -0.17400
H985        H  0.68233199  0.44540870  0.80984078     0.20600
H986        H  0.58795765  0.38080324  0.84986208     0.19000
H987        H  0.60658136  0.34257630  0.84270409     0.18900
H988        H  0.66403135  0.48352928  0.81680596     0.14800
C989        C  0.38671430  0.74344331  0.59993968     0.30200
C990        C  0.39276788  0.76987183  0.60691499    -0.36100
C991        C  0.42048126  0.79047005  0.60527279     0.16200
C992        C  0.44080174  0.78545908  0.59697205     0.22000
C993        C  0.43476255  0.75896503  0.59025239    -0.34300
C994        C  0.40707055  0.73830551  0.59223025     0.16100
O995        O  0.36239084  0.72109556  0.60139001    -0.26300
C996        C  0.36720837  0.70133935  0.59480401     0.05900
C997        C  0.39465477  0.71079789  0.58890392    -0.31200
O998        O  0.46543110  0.80768588  0.59766803    -0.23000
C999        C  0.46085141  0.82714800  0.60672659    -0.03000
C1000       C  0.43325970  0.81759553  0.61192579    -0.17400
H1001       H  0.37705318  0.77399902  0.61380051     0.20600
H1002       H  0.45062684  0.75470876  0.58453999     0.19000
H1003       H  0.40413497  0.69909068  0.58381528     0.18900
H1004       H  0.42409081  0.82889724  0.62009925     0.14800
C1005       C  0.60777694  0.23000690  0.82953276     0.30200
C1006       C  0.60256437  0.20511098  0.84122114    -0.36100
C1007       C  0.57535057  0.18335629  0.83767675     0.16200
C1008       C  0.55480683  0.18581718  0.82306984     0.22000
C1009       C  0.56005889  0.21068369  0.81121915    -0.34300
C1010       C  0.58713926  0.23259251  0.81541304     0.16100
O1011       O  0.63125304  0.25335287  0.83239586    -0.26300
C1012       C  0.62550057  0.27117423  0.82038626     0.05900
C1013       C  0.59837229  0.25946740  0.80942958    -0.31200
O1014       O  0.53046993  0.16346292  0.82444086    -0.23000
C1015       C  0.53542854  0.14652808  0.84029880    -0.03000
C1016       C  0.56302554  0.15775104  0.84904694    -0.17400
H1017       H  0.61835298  0.20314389  0.85344851     0.20600
H1018       H  0.54388408  0.21305402  0.80080180     0.19000
H1019       H  0.58830759  0.26940203  0.79928042     0.18900
H1020       H  0.57234387  0.14885765  0.86316619     0.14800
C1021       C  0.50871612  0.98193332  0.51872968     0.30200
C1022       C  0.50028269  0.00063949  0.51487973    -0.36100
C1023       C  0.48956566  0.00103374  0.98622512     0.16200
C1024       C  0.48478120  0.98266214  0.96211434     0.22000
C1025       C  0.49252109  0.96321136  0.96567758    -0.34300
C1026       C  0.50531394  0.96385694  0.99482711     0.16100
O1027       O  0.52203223  0.98051383  0.54374944    -0.26300
C1028       C  0.52806267  0.96194007  0.53559769     0.05900
C1029       C  0.51834231  0.95097071  0.50522667    -0.31200
O1030       O  0.47471750  0.98728762  0.93602215    -0.23000
C1031       C  0.47326856  0.00903083  0.94352595    -0.03000
C1032       C  0.48217729  0.01835285  0.97448043    -0.17400
H1033       H  0.50356536  0.01523705  0.53334499     0.20600
H1034       H  0.48976092  0.94927748  0.94662421     0.19000
H1035       H  0.51857788  0.93410939  0.99221499     0.18900
H1036       H  0.48417709  0.03613437  0.98612187     0.14800
C1037       C  0.50805475  0.99601606  0.71122765     0.30200
C1038       C  0.49366636  0.00973737  0.71318459    -0.36100
C1039       C  0.48264441  0.00936705  0.74266681     0.16200
C1040       C  0.48599991  0.99683266  0.76858162     0.22000
C1041       C  0.50063488  0.98345506  0.76674605    -0.34300
C1042       C  0.51122323  0.98342671  0.73721801     0.16100
O1043       O  0.51700030  0.99078130  0.68515818    -0.26300
C1044       C  0.52580761  0.97452513  0.69467924     0.05900
C1045       C  0.52290344  0.96948819  0.72683340    -0.31200
O1046       O  0.47300510  0.99791071  0.79340616    -0.23000
C1047       C  0.46101007  0.01119206  0.78328486    -0.03000
C1048       C  0.46626335  0.01881232  0.75188576    -0.17400
H1049       H  0.49013340  0.01887175  0.69278533     0.20600
H1050       H  0.50253658  0.97272312  0.78657572     0.19000
H1051       H  0.52675835  0.95572469  0.74007594     0.18900
H1052       H  0.45883372  0.02947738  0.73785582     0.14800
C1053       C  0.22993941  0.61615958  0.61966134     0.30200
C1054       C  0.20464715  0.59995645  0.63406250    -0.36100
C1055       C  0.18595931  0.60889299  0.63144564     0.16200
C1056       C  0.19159882  0.63193731  0.61541485     0.22000
C1057       C  0.21685455  0.64814300  0.60114954    -0.34300
C1058       C  0.23560422  0.63939138  0.60405428     0.16100
O1059       O  0.25102930  0.61251448  0.62048108    -0.26300
C1060       C  0.27040932  0.63383001  0.60540357     0.05900
C1061       C  0.26189799  0.65111832  0.59459931    -0.31200
O1062       O  0.17114253  0.63644213  0.61569700    -0.23000
C1063       C  0.15219906  0.61612936  0.63231528    -0.03000
C1064       C  0.16032531  0.59843371  0.64288577    -0.17400
H1065       H  0.20004899  0.58194537  0.64685133     0.20600
H1066       H  0.22170183  0.66651320  0.58901825     0.19000
H1067       H  0.27373332  0.67009712  0.58249104     0.18900
H1068       H  0.14887365  0.58036322  0.65667047     0.14800
C1069       C  0.80955868  0.37353801  0.84765854     0.30200
C1070       C  0.79145256  0.38297282  0.85139006    -0.36100
C1071       C  0.76493022  0.36639040  0.83800482     0.16200
C1072       C  0.75684313  0.34220642  0.82211842     0.22000
C1073       C  0.77520870  0.33327787  0.81745351    -0.34300
C1074       C  0.80167041  0.34980963  0.83084292     0.16100
O1075       O  0.83424530  0.38416155  0.86110873    -0.26300
C1076       C  0.84226139  0.36709613  0.85259473     0.05900
C1077       C  0.82298712  0.34554792  0.83341506    -0.31200
O1078       O  0.73039916  0.32848995  0.81449232    -0.23000
C1079       C  0.72150960  0.34425927  0.82516211    -0.03000
C1080       C  0.74208653  0.36823486  0.83977136    -0.17400
H1081       H  0.79719819  0.40121229  0.86510731     0.20600
H1082       H  0.76888891  0.31408228  0.80562590     0.19000
H1083       H  0.82390662  0.32841401  0.82432519     0.18900
H1084       H  0.74011517  0.38385878  0.85159138     0.14800
C1085       C  0.00765189  0.48851276  0.97095247     0.30200
C1086       C  0.02151961  0.51700427  0.97320784    -0.36100
C1087       C  0.02238253  0.52809190  0.00319196     0.16200
C1088       C  0.00917015  0.51280249  0.53292079     0.22000
C1089       C  0.99377587  0.48451550  0.52909346    -0.34300
C1090       C  0.99601386  0.47278951  0.99705643     0.16100
O1091       O  0.00144740  0.47374256  0.94464126    -0.26300
C1092       C  0.98551231  0.44835601  0.95412355     0.05900
C1093       C  0.98153628  0.44655647  0.98645777    -0.31200
O1094       O  0.01004510  0.52657560  0.55834425    -0.23000
C1095       C  0.02494500  0.55235138  0.55000948    -0.03000
C1096       C  0.03396012  0.55538444  0.51914188    -0.17400
H1097       H  0.02970567  0.52954057  0.95270483     0.20600
H1098       H  0.98170161  0.47146369  0.54792402     0.19000
H1099       H  0.96830079  0.42866013  0.99980139     0.18900
H1100       H  0.04547102  0.57395470  0.50620585     0.14800
C1101       C  0.98718799  0.49380237  0.72498105     0.30200
C1102       C  0.97099964  0.46532124  0.72725745    -0.36100
C1103       C  0.97406653  0.45441210  0.75568544     0.16200
C1104       C  0.99162631  0.47046946  0.78020113     0.22000
C1105       C  0.00768786  0.49874831  0.77795467    -0.34300
C1106       C  0.00471272  0.50954251  0.74966834     0.16100
O1107       O  0.98918516  0.50839157  0.69995264    -0.26300
C1108       C  0.00819250  0.53373707  0.70902558     0.05900
C1109       C  0.01836545  0.53548244  0.73973346    -0.31200
O1110       O  0.99169866  0.45625916  0.80441814    -0.23000
C1111       C  0.97408558  0.43060589  0.79543807    -0.03000
C1112       C  0.96249922  0.42817258  0.76525217    -0.17400
H1113       H  0.95747459  0.45253529  0.70799750     0.20600
H1114       H  0.02195371  0.51145606  0.79677265     0.19000
H1115       H  0.03465498  0.55322428  0.75235390     0.18900
H1116       H  0.94777440  0.40978335  0.75230410     0.14800
C1117       C  0.07670857  0.40583611  0.85284102     0.30200
C1118       C  0.09848800  0.40918490  0.83481623    -0.36100
C1119       C  0.12151443  0.41273616  0.85180196     0.16200
C1120       C  0.12316893  0.41296707  0.88434536     0.22000
C1121       C  0.10146074  0.41014777  0.90255010    -0.34300
C1122       C  0.07823016  0.40656092  0.88546959     0.16100
O1123       O  0.05257183  0.40015668  0.84148586    -0.26300
C1124       C  0.03826666  0.39741201  0.86699784     0.05900
C1125       C  0.05317655  0.40131662  0.89519282    -0.31200
O1126       O  0.14563183  0.41381872  0.89497794    -0.23000
C1127       C  0.15851129  0.41418358  0.86884379    -0.03000
C1128       C  0.14438448  0.41386090  0.84132335    -0.17400
H1129       H  0.09709829  0.40794984  0.80923983     0.20600
H1130       H  0.10216533  0.40964579  0.92809808     0.19000
H1131       H  0.04617244  0.39928567  0.91913109     0.18900
H1132       H  0.14900889  0.41282985  0.81691355     0.14800
C1133       C  0.27541744  0.41314449  0.01997219     0.30200
C1134       C  0.25275670  0.41492422  0.00958020    -0.36100
C1135       C  0.24426185  0.40745336  0.97779441     0.16200
C1136       C  0.25700132  0.39850959  0.95797364     0.22000
C1137       C  0.27924757  0.39632250  0.96839332    -0.34300
C1138       C  0.28796343  0.40414994  0.99983340     0.16100
O1139       O  0.28911353  0.42244280  0.04726129    -0.26300
C1140       C  0.31033986  0.41858558  0.53878703     0.05900
C1141       C  0.31273938  0.41132454  0.50826092    -0.31200
O1142       O  0.24779413  0.39520928  0.92860884    -0.23000
C1143       C  0.22882920  0.40211121  0.92917507    -0.03000
C1144       C  0.22557345  0.40976217  0.95936008    -0.17400
H1145       H  0.24352529  0.42312278  0.02461347     0.20600
H1146       H  0.29009844  0.39054655  0.95250978     0.19000
H1147       H  0.33004126  0.41119692  0.49831261     0.18900
H1148       H  0.21275602  0.41755830  0.96642726     0.14800
C1149       C  0.25137311  0.39136266  0.78447988     0.30200
C1150       C  0.26873851  0.38273429  0.77388989    -0.36100
C1151       C  0.27927168  0.39133091  0.74395004     0.16200
C1152       C  0.27313236  0.40722215  0.72539564     0.22000
C1153       C  0.25540479  0.41563766  0.73593292    -0.34300
C1154       C  0.24485266  0.40706325  0.76611219     0.16100
O1155       O  0.24118467  0.38746082  0.81276524    -0.26300
C1156       C  0.22774993  0.40067193  0.81276573     0.05900
C1157       C  0.22910322  0.41311159  0.78418672    -0.31200
O1158       O  0.28655352  0.41390173  0.69873056    -0.23000
C1159       C  0.30137163  0.40207758  0.70053268    -0.03000
C1160       C  0.29757496  0.38778289  0.72810313    -0.17400
H1161       H  0.27440443  0.37091592  0.78845474     0.20600
H1162       H  0.25084470  0.42860230  0.72204516     0.19000
H1163       H  0.22118923  0.42609341  0.77827975     0.18900
H1164       H  0.30745212  0.37689626  0.73571877     0.14800
C1165       C  0.91380800  0.57099314  0.61815133     0.30200
C1166       C  0.88923304  0.56325367  0.63365254    -0.36100
C1167       C  0.86824284  0.56331642  0.61530061     0.16200
C1168       C  0.87115492  0.57033811  0.58393840     0.22000
C1169       C  0.89542563  0.57765420  0.56842983    -0.34300
C1170       C  0.91631818  0.57770116  0.58667922     0.16100
O1171       O  0.93690814  0.57425119  0.63093792    -0.26300
C1172       C  0.95424583  0.58309238  0.60712472     0.05900
C1173       C  0.94234098  0.58541044  0.57915526    -0.31200
O1174       O  0.84984216  0.57084232  0.57180125    -0.23000
C1175       C  0.83278620  0.56410046  0.59561899    -0.03000
C1176       C  0.84317626  0.55891843  0.62325316    -0.17400
H1177       H  0.88695455  0.55842483  0.65847293     0.20600
H1178       H  0.89819792  0.58379628  0.54403811     0.19000
H1179       H  0.95188832  0.59276947  0.55666963     0.18900
H1180       H  0.83417767  0.55357917  0.64626038     0.14800
C1181       C  0.71477530  0.57043925  0.73358929     0.30200
C1182       C  0.73425516  0.56381488  0.72462735    -0.36100
C1183       C  0.74373324  0.57060416  0.69377398     0.16200
C1184       C  0.73469248  0.58311489  0.67335321     0.22000
C1185       C  0.71577934  0.59027161  0.68246635    -0.34300
C1186       C  0.70629027  0.58341620  0.71312191     0.16100
O1187       O  0.70112977  0.56369397  0.76007601    -0.26300
C1188       C  0.68385700  0.57261132  0.75635946     0.05900
C1189       C  0.68638551  0.58524342  0.72772470    -0.31200
O1190       O  0.74422687  0.58546287  0.64488226    -0.23000
C1191       C  0.75979580  0.57449093  0.64685185    -0.03000
C1192       C  0.76043665  0.56504367  0.67687888    -0.17400
H1193       H  0.74062494  0.55305700  0.74007600     0.20600
H1194       H  0.70805444  0.59942650  0.66628229     0.19000
H1195       H  0.67422701  0.59327531  0.71831015     0.18900
H1196       H  0.77037022  0.55426809  0.68464531     0.14800
C1197       C  0.71068231  0.55841165  0.93867304     0.30200
C1198       C  0.73270456  0.55539482  0.94902924    -0.36100
C1199       C  0.74324049  0.56378324  0.48230990     0.16200
C1200       C  0.72986699  0.57265269  0.00078225     0.22000
C1201       C  0.70825452  0.57600266  0.99040308    -0.34300
C1202       C  0.69916240  0.56841133  0.95890768     0.16100
O1203       O  0.69673217  0.54965829  0.91132915    -0.26300
C1204       C  0.67621959  0.55434295  0.91418305     0.05900
C1205       C  0.67672310  0.56585777  0.94332937    -0.31200
O1206       O  0.73943439  0.57601314  0.03011033    -0.23000
C1207       C  0.75997218  0.57069597  0.53074502    -0.03000
C1208       C  0.76224035  0.56174341  0.50081242    -0.17400
H1209       H  0.74231232  0.54641116  0.43591608     0.20600
H1210       H  0.69819874  0.58268349  0.00633377     0.19000
H1211       H  0.66140534  0.56963560  0.95262048     0.18900
H1212       H  0.77456891  0.55327969  0.49413543     0.14800
C1213       C  0.57797206  0.69291234  0.85976689     0.30200
C1214       C  0.58297674  0.67491944  0.87665845    -0.36100
C1215       C  0.58260200  0.65409586  0.85878219     0.16200
C1216       C  0.57788204  0.65137802  0.82645676     0.22000
C1217       C  0.57273562  0.66929469  0.80959943    -0.34300
C1218       C  0.57296886  0.69003091  0.82752642     0.16100
O1219       O  0.57800371  0.71413429  0.87168624    -0.26300
C1220       C  0.57296901  0.72520019  0.84685522     0.05900
C1221       C  0.56956577  0.71087499  0.81865901    -0.31200
O1222       O  0.57979230  0.63131480  0.81424105    -0.23000
C1223       C  0.58546422  0.62076821  0.83906205    -0.03000
C1224       C  0.58741397  0.63409893  0.86746266    -0.17400
H1225       H  0.58721337  0.67721745  0.90192348     0.20600
H1226       H  0.56922893  0.66744342  0.78421322     0.19000
H1227       H  0.56552713  0.71518872  0.79500059     0.18900
H1228       H  0.59276225  0.63035069  0.89079321     0.14800
C1229       C  0.59090891  0.82964766  0.95016700     0.30200
C1230       C  0.60308260  0.85526012  0.96490961    -0.36100
C1231       C  0.59118379  0.85671331  0.99275042     0.16200
C1232       C  0.56881890  0.83451763  0.00563470     0.22000
C1233       C  0.55692955  0.80854480  0.99115486    -0.34300
C1234       C  0.56888924  0.80707021  0.96300385     0.16100
O1235       O  0.59675341  0.82470309  0.92198295    -0.26300
C1236       C  0.57867336  0.79848013  0.91663478     0.05900
C1237       C  0.56084833  0.78628544  0.94140363    -0.31200
O1238       O  0.56173469  0.84375745  0.53357402    -0.23000
C1239       C  0.57466790  0.87084612  0.53364784    -0.03000
C1240       C  0.59602033  0.87879669  0.00982731    -0.17400
H1241       H  0.61967253  0.87317439  0.95434146     0.20600
H1242       H  0.53875883  0.79108379  0.00017521     0.19000
H1243       H  0.54317595  0.76583665  0.94210915     0.18900
H1244       H  0.61100311  0.89988570  0.00544003     0.14800
C1245       C  0.54655696  0.85143052  0.73552974     0.30200
C1246       C  0.54045997  0.84179263  0.76628878    -0.36100
C1247       C  0.55166499  0.82646262  0.77663281     0.16200
C1248       C  0.56768961  0.82065765  0.75810579     0.22000
C1249       C  0.57391786  0.83047332  0.72711014    -0.34300
C1250       C  0.56279786  0.84612605  0.71670669     0.16100
O1251       O  0.53740896  0.86547917  0.72109713    -0.26300
C1252       C  0.54797783  0.86962800  0.69254130     0.05900
C1253       C  0.56407924  0.85809522  0.68838828    -0.31200
O1254       O  0.57602072  0.80591117  0.77311524    -0.23000
C1255       C  0.56529713  0.80259366  0.80164252    -0.03000
C1256       C  0.54989409  0.81488657  0.80488121    -0.17400
H1257       H  0.52773891  0.84590871  0.78114947     0.20600
H1258       H  0.58648900  0.82621400  0.71218732     0.19000
H1259       H  0.57426321  0.85767918  0.66730000     0.18900
H1260       H  0.53906809  0.81539299  0.82533013     0.14800
C1261       C  0.70133411  0.11265474  0.61568955     0.30200
C1262       C  0.68009594  0.09272175  0.63392399    -0.36100
C1263       C  0.66236808  0.06742649  0.61864944     0.16200
C1264       C  0.66557474  0.06228504  0.58765845     0.22000
C1265       C  0.68661607  0.08218706  0.56947624    -0.34300
C1266       C  0.70413205  0.10740252  0.58462505     0.16100
O1267       O  0.72092001  0.13723673  0.62546526    -0.26300
C1268       C  0.73638890  0.14803758  0.60025015     0.05900
C1269       C  0.72671835  0.13025629  0.57411416    -0.31200
O1270       O  0.64738645  0.03725053  0.57812673    -0.23000
C1271       C  0.63200554  0.02590868  0.60314069    -0.03000
C1272       C  0.64035527  0.04378089  0.62918518    -0.17400
H1273       H  0.67780884  0.09654818  0.65840496     0.20600
H1274       H  0.68933850  0.07815121  0.54523462     0.19000
H1275       H  0.73566060  0.13315590  0.55113061     0.18900
H1276       H  0.63178535  0.03982520  0.65246475     0.14800
C1277       C  0.87189116  0.26887213  0.74581904     0.30200
C1278       C  0.87328215  0.25859643  0.71634640    -0.36100
C1279       C  0.84828703  0.24287343  0.69961593     0.16200
C1280       C  0.82337778  0.23713978  0.71115540     0.22000
C1281       C  0.82194644  0.24719599  0.74107060    -0.34300
C1282       C  0.84718748  0.26338682  0.75778365     0.16100
O1283       O  0.89318804  0.28645062  0.76342773    -0.26300
C1284       C  0.88232552  0.29251196  0.78722014     0.05900
C1285       C  0.85366021  0.27861106  0.78521547    -0.31200
O1286       O  0.80288900  0.22378497  0.69013164    -0.23000
C1287       C  0.81506139  0.22127123  0.66488167    -0.03000
C1288       C  0.84323911  0.23265596  0.66961858    -0.17400
H1289       H  0.89273215  0.26375383  0.70640054     0.20600
H1290       H  0.80273986  0.24378033  0.74995825     0.19000
H1291       H  0.83988045  0.28090124  0.80035252     0.18900
H1292       H  0.85805076  0.23421194  0.65284634     0.14800
C1293       C  0.85200581  0.28016721  0.96788425     0.30200
C1294       C  0.83205835  0.25290375  0.97435548    -0.36100
C1295       C  0.82615390  0.24670397  0.00651032     0.16200
C1296       C  0.84675596  0.26377113  0.52450987     0.22000
C1297       C  0.85886325  0.29308609  0.02399973    -0.34300
C1298       C  0.86453497  0.29924817  0.99212703     0.16100
O1299       O  0.86026716  0.29092664  0.93967162    -0.26300
C1300       C  0.87817368  0.31723248  0.94618820     0.05900
C1301       C  0.88146169  0.32337810  0.97845621    -0.31200
O1302       O  0.84019984  0.25368329  0.55286623    -0.23000
C1303       C  0.81623078  0.23043752  0.54861543    -0.03000
C1304       C  0.80728095  0.22543908  0.51684221    -0.17400
H1305       H  0.82171253  0.23768846  0.95567201     0.20600
H1306       H  0.88438900  0.30220552  0.53584780     0.19000
H1307       H  0.89405811  0.34305412  0.99012620     0.18900
H1308       H  0.79459028  0.20317717  0.01019376     0.14800
C1309       C  0.33047489  0.91345510  0.84599420     0.30200
C1310       C  0.30884874  0.89067798  0.83019071    -0.36100
C1311       C  0.29195466  0.86875598  0.84910285     0.16200
C1312       C  0.29590651  0.86901683  0.88139140     0.22000
C1313       C  0.31799133  0.89172414  0.89723055    -0.34300
C1314       C  0.33497674  0.91383731  0.87824648     0.16100
O1315       O  0.34750905  0.93675014  0.83304555    -0.26300
C1316       C  0.36336846  0.95238477  0.85716518     0.05900
C1317       C  0.35666995  0.93921002  0.88593625    -0.31200
O1318       O  0.27597979  0.84708023  0.89454094    -0.23000
C1319       C  0.25914921  0.83256678  0.87025747    -0.03000
C1320       C  0.26835434  0.84520436  0.84141444    -0.17400
H1321       H  0.30484069  0.89045300  0.80502376     0.20600
H1322       H  0.32107760  0.89250181  0.92263717     0.19000
H1323       H  0.36579613  0.94741876  0.90914491     0.18900
H1324       H  0.25847580  0.83909313  0.81819003     0.14800
C1325       C  0.17529654  0.74955276  0.98337595     0.30200
C1326       C  0.17580211  0.73526388  0.00999515    -0.36100
C1327       C  0.15097888  0.72068454  0.02601083     0.16200
C1328       C  0.12752352  0.72055108  0.01647815     0.22000
C1329       C  0.12723570  0.73535299  0.99060010    -0.34300
C1330       C  0.15176245  0.74949711  0.97445712     0.16100
O1331       O  0.19460732  0.76103800  0.96219599    -0.26300
C1332       C  0.18312223  0.76825199  0.93954957     0.05900
C1333       C  0.15659170  0.76173390  0.94610915    -0.31200
O1334       O  0.10569425  0.70280418  0.03154053    -0.23000
C1335       C  0.11534794  0.68917281  0.55197504    -0.03000
C1336       C  0.14386078  0.70083999  0.55164044    -0.17400
H1337       H  0.19363802  0.73399623  0.01636050     0.20600
H1338       H  0.10853343  0.73420680  0.98216924     0.19000
H1339       H  0.14215620  0.76365489  0.93087742     0.18900
H1340       H  0.15664098  0.69657668  0.56689791     0.14800
C1341       C  0.13275476  0.70407909  0.73399015     0.30200
C1342       C  0.15360333  0.73079872  0.74252743    -0.36100
C1343       C  0.15821919  0.73688704  0.77519518     0.16200
C1344       C  0.14312663  0.71810506  0.79767716     0.22000
C1345       C  0.12225782  0.69170557  0.78920682    -0.34300
C1346       C  0.11789306  0.68556889  0.75684090     0.16100
O1347       O  0.12660038  0.69287651  0.70521754    -0.26300
C1348       C  0.10768606  0.66695865  0.71011232     0.05900
C1349       C  0.10148503  0.66144079  0.74169745    -0.31200
O1350       O  0.15173644  0.72732440  0.82674157    -0.23000
C1351       C  0.17283698  0.75243085  0.82323798    -0.03000
C1352       C  0.17774326  0.75957536  0.79153208    -0.17400
H1353       H  0.16610474  0.74538937  0.72508549     0.19000
H1354       H  0.11097456  0.67660877  0.80673117     0.19000
H1355       H  0.08801933  0.64197765  0.75217473     0.18900
H1356       H  0.19364698  0.77838570  0.78177526     0.14800
C1357       C  0.38589492  0.30474753  0.61850774     0.30200
C1358       C  0.38188085  0.28105862  0.63240600    -0.36100
C1359       C  0.39216303  0.26712775  0.61618501     0.16200
C1360       C  0.40531902  0.27555985  0.58793074     0.22000
C1361       C  0.40936808  0.29948672  0.57388344    -0.34300
C1362       C  0.39917867  0.31369912  0.59035764     0.16100
O1363       O  0.37814843  0.32085113  0.63022501    -0.26300
C1364       C  0.38644990  0.34063636  0.60952310     0.05900
C1365       C  0.39972423  0.33733047  0.58407053    -0.31200
O1366       O  0.41302644  0.25892373  0.57700729    -0.23000
C1367       C  0.40492218  0.23986531  0.59889736    -0.03000
C1368       C  0.39173104  0.24407668  0.62363039    -0.17400
H1369       H  0.37156731  0.27404828  0.65455180     0.20600
H1370       H  0.41978846  0.30656332  0.55182057     0.19000
H1371       H  0.40858408  0.35043630  0.56413563     0.18900
H1372       H  0.38261696  0.23168019  0.64403474     0.14800
C1373       C  0.42068077  0.15841215  0.69832023     0.30200
C1374       C  0.43392919  0.16072956  0.72780429    -0.36100
C1375       C  0.42560471  0.13617521  0.74328414     0.16200
C1376       C  0.40561215  0.11131871  0.73045953     0.22000
C1377       C  0.39247234  0.10903764  0.70128547    -0.34300
C1378       C  0.40085642  0.13333585  0.68588248     0.16100
O1379       O  0.42591557  0.17832114  0.67887955    -0.26300
C1380       C  0.40936743  0.16558526  0.65371308     0.05900
C1381       C  0.39330923  0.13762600  0.65693363    -0.31200
O1382       O  0.40177050  0.09083816  0.74762887    -0.23000
C1383       C  0.41935997  0.10235972  0.77207935    -0.03000
C1384       C  0.43484108  0.13066932  0.77081132    -0.17400
H1385       H  0.44999897  0.18015818  0.73756977     0.20600
H1386       H  0.37724750  0.08950571  0.69088284     0.19000
H1387       H  0.37863540  0.12256540  0.64000893     0.18900
H1388       H  0.45119232  0.14488245  0.78693944     0.14800
C1389       C  0.40848516  0.13598927  0.50825278     0.30200
C1390       C  0.41866821  0.14510179  0.96615445    -0.36100
C1391       C  0.43514206  0.13552310  0.95432584     0.16200
C1392       C  0.45867531  0.13998688  0.97015823     0.22000
C1393       C  0.43476780  0.16040963  0.46254837    -0.34300
C1394       C  0.42221779  0.15943210  0.49119554     0.16100
O1395       O  0.40083598  0.14007122  0.53581442    -0.26300
C1396       C  0.40958913  0.16648598  0.53678414     0.05900
C1397       C  0.42282804  0.17957974  0.50937522    -0.31200
O1398       O  0.47048193  0.12852036  0.95573779    -0.23000
C1399       C  0.45448647  0.11649699  0.93012836    -0.03000
C1400       C  0.43216262  0.12023270  0.92787118    -0.17400
H1401       H  0.39985739  0.14092349  0.95402600     0.20600
H1402       H  0.44639037  0.17909025  0.44985270     0.19000
H1403       H  0.43338038  0.20108619  0.50471129     0.18900
H1404       H  0.41597615  0.11249543  0.90972467     0.14800
loop_ 
_geom_bond_atom_site_label_1 
_geom_bond_atom_site_label_2 
_geom_bond_distance 
_geom_bond_site_symmetry_2 
_ccdc_geom_bond_type 
C1            C2   1.416       .  A
C1            C6   1.416       .  A
C1          C665   1.501       .  S
C2            C3   1.400       .  A
C2            H7   1.079       .  S
C3            C4   1.397       .  A
C3          C678   1.480       .  S
C4            C5   1.400       .  A
C4            H8   1.084       .  S
C5            C6   1.411       .  A
C5          C694   1.479       .  S
C6            H9   1.083       .  S
C10          C11   1.413       .  A
C10          C15   1.415       .  A
C10         C617   1.492       .  S
C11          C12   1.401       .  A
C11          H16   1.078       .  S
C12          C13   1.399       .  A
C12         C649   1.485       .  S
C13          C14   1.402       .  A
C13          H17   1.084       .  S
C14          C15   1.408       .  A
C14         C630   1.482       .  S
C15          H18   1.083       .  S
C19          C20   1.420       .  A
C19          C24   1.411       .  A
C19         C566   1.491       .  S
C20          C21   1.411       .  A
C20          H25   1.081       .  S
C21          C22   1.400       .  A
C21         C601   1.492       .  S
C22          C23   1.399       .  A
C22          H26   1.084       .  S
C23          C24   1.400       .  A
C23         C585   1.478       .  S
C24          H27   1.084       .  S
C28          C29   1.419       .  A
C28          C33   1.409       .  A
C28         C518   1.488       .  S
C29          C30   1.406       .  A
C29          H34   1.081       .  S
C30          C31   1.403       .  A
C30         C553   1.491       .  S
C31          C32   1.399       .  A
C31          H35   1.084       .  S
C32          C33   1.401       .  A
C32         C534   1.475       .  S
C33          H36   1.084       .  S
C37          C38   1.415       .  A
C37          C42   1.411       .  A
C37         C473   1.488       .  S
C38          C39   1.410       .  A
C38          H43   1.082       .  S
C39          C40   1.403       .  A
C39         C505   1.492       .  S
C40          C41   1.401       .  A
C40          H44   1.083       .  S
C41          C42   1.401       .  A
C41         C489   1.482       .  S
C42          H45   1.081       .  S
C46          C47   1.412       .  A
C46          C51   1.413       .  A
C46         C425   1.485       .  S
C47          C48   1.407       .  A
C47          H52   1.082       .  S
C48          C49   1.401       .  A
C48         C441   1.485       .  S
C49          C50   1.396       .  A
C49          H53   1.083       .  S
C50          C51   1.398       .  A
C50         C454   1.478       .  S
C51          H54   1.079       .  S
O55         Ni61   1.915       .  S
O55          C76   1.269       .  A
O56         Ni79   1.921       .  S
O56          C65   1.268       .  A
O57         Ni61   1.914       .  S
O57         Ni79   1.920       .  S
O57         Ni73   1.930       .  S
O57          H80   0.966       .  S
C58         C374   1.462       .  S
C58          O75   1.274       .  A
C58          O67   1.277       .  A
O59         Ni78   1.924       .  S
O59          C65   1.269       .  A
O60         Ni78   1.904       .  S
O60          C62   1.268       .  A
Ni61         O64   1.929       .  S
Ni61         O66   1.901       .  S
C62         C598   1.473       .  S
C62          O72   1.273       .  A
O63         Ni79   1.910       .  S
O63          C69   1.267   1_655  A
O64          C69   1.270   1_655  A
C65         C390   1.470       .  S
O66          C68   1.269       .  A
O67         Ni78   1.926       .  S
C68         C409   1.470       .  S
C68          O74   1.279       .  A
C69         C422   1.464       .  S
H70          O71   0.966       .  S
O71         Ni79   1.898       .  S
O71         Ni73   1.898       .  S
O71         Ni78   1.897       .  S
O72         Ni73   1.937       .  S
Ni73         O77   1.913       .  S
Ni73         O75   1.905       .  S
O74         Ni79   1.954       .  S
C76         C582   1.470       .  S
C76          O77   1.269       .  A
O81         Ni87   1.918       .  S
O81         C102   1.270       .  A
O82        Ni105   1.933       .  S
O82          C91   1.272       .  A
O83         Ni87   1.912       .  S
O83        Ni105   1.924       .  S
O83         Ni99   1.937       .  S
O83         H106   0.966       .  S
C84         C361   1.468       .  S
C84         O101   1.279       .  A
C84          O93   1.278       .  A
O85        Ni104   1.913       .  S
O85          C91   1.266       .  A
O86        Ni104   1.895       .  S
O86          C88   1.266       .  A
Ni87         O90   1.926   1_455  S
Ni87         O92   1.910       .  S
C88         C646   1.470       .  S
C88          O98   1.273       .  A
O89        Ni105   1.922   1_655  S
O89          C95   1.272       .  A
O90          C95   1.272       .  A
C91         C406   1.472       .  S
O92          C94   1.272       .  A
O93        Ni104   1.918       .  S
C94         C393   1.467       .  S
C94         O100   1.277       .  A
C95         C470   1.476       .  S
H96          O97   0.965       .  S
O97        Ni105   1.906       .  S
O97         Ni99   1.892       .  S
O97        Ni104   1.886       .  S
O98         Ni99   1.937       .  S
Ni99        O103   1.914       .  S
Ni99        O101   1.926       .  S
O100       Ni105   1.941       .  S
C102        C633   1.470       .  S
C102        O103   1.269       .  A
O107       Ni113   1.920       .  S
O107        C128   1.270       .  A
O108       Ni131   1.916       .  S
O108        C117   1.265       .  A
O109       Ni113   1.918       .  S
O109       Ni131   1.918       .  S
O109       Ni125   1.925       .  S
O109        H132   0.966       .  S
C110        C313   1.469       .  S
C110        O127   1.275       .  A
C110        O119   1.276       .  A
O111       Ni130   1.929       .  S
O111        C117   1.271       .  A
O112       Ni130   1.912       .  S
O112        C114   1.269       .  A
Ni113       O116   1.936   1_545  S
Ni113       O118   1.905       .  S
C114        C697   1.471       .  S
C114        O124   1.273       .  A
O115       Ni131   1.910   1_565  S
O115        C121   1.270       .  A
O116        C121   1.274       .  A
C117        C329   1.473       .  S
O118        C120   1.267       .  A
O119       Ni130   1.923       .  S
C120        C345   1.469       .  S
C120        O126   1.273       .  A
C121        C614   1.472       .  S
H122        O123   0.966       .  S
O123       Ni131   1.909       .  S
O123       Ni125   1.908       .  S
O123       Ni130   1.908       .  S
O124       Ni125   1.935       .  S
Ni125       O129   1.915       .  S
Ni125       O127   1.919       .  S
O126       Ni131   1.942       .  S
C128        C681   1.471       .  S
C128        O129   1.270       .  A
O133       Ni139   1.925       .  S
O133        C154   1.274       .  A
O134       Ni157   1.920       .  S
O134        C143   1.269       .  A
O135       Ni139   1.910       .  S
O135       Ni157   1.916       .  S
O135       Ni151   1.930       .  S
O135        H158   0.966       .  S
C136        C297   1.468       .  S
C136        O153   1.279       .  A
C136        O145   1.278       .  A
O137       Ni156   1.917       .  S
O137        C143   1.268       .  A
O138       Ni156   1.903       .  S
O138        C140   1.267       .  A
Ni139       O142   1.937       .  S
Ni139       O144   1.919       .  S
C140        C550   1.483       .  S
C140        O150   1.278       .  A
O141       Ni157   1.921       .  S
O141        C147   1.275       .  A
O142        C147   1.275       .  A
C143        C342   1.467       .  S
O144        C146   1.270       .  A
O145       Ni156   1.917       .  S
C146        C326   1.478       .  S
C146        O152   1.274       .  A
C147        C569   1.477   1_565  S
H148        O149   0.966       .  S
O149       Ni157   1.910       .  S
O149       Ni151   1.893       .  S
O149       Ni156   1.886       .  S
O150       Ni151   1.954       .  S
Ni151       O155   1.908       .  S
Ni151       O153   1.930       .  S
O152       Ni157   1.947       .  S
C154        C537   1.469       .  S
C154        O155   1.269       .  A
C159        C278   1.465       .  S
C159        N160   1.358       .  A
C159        N164   1.357       .  A
N160        C161   1.358       .  A
C161        C377   1.463       .  S
C161        N162   1.357       .  A
N162        C163   1.356       .  A
C163        C310   1.465       .  S
C163        N164   1.355       .  A
C165        C262   1.474       .  S
C165        N166   1.361       .  A
C165        N170   1.361       .  A
N166        C167   1.359       .  A
C167        C294   1.467       .  S
C167        N168   1.354       .  A
N168        C169   1.356       .  A
C169        C358   1.469       .  S
C169        N170   1.360       .  A
O171       Ni177   1.914       .  S
O171        C192   1.265       .  A
O172       Ni195   1.904       .  S
O172        C181   1.266       .  A
O173       Ni177   1.900       .  S
O173       Ni195   1.900       .  S
O173       Ni189   1.919       .  S
O173        H196   0.966       .  S
C174        C662   1.484       .  S
C174        O191   1.274       .  A
C174        O183   1.274       .  A
O175       Ni194   1.928       .  S
O175        C181   1.273       .  A
O176       Ni194   1.900       .  S
O176        C178   1.268       .  A
Ni177       O180   1.917       .  S
Ni177       O182   1.901       .  S
C178        C230   1.470       .  S
C178        O188   1.275       .  A
O179       Ni195   1.935       .  S
O179        C185   1.279       .  A
O180        C185   1.274       .  A
C181        C457   1.470       .  S
O182        C184   1.266       .  A
O183       Ni194   1.933       .  S
C184        C438   1.456       .  S
C184        O190   1.268       .  A
C185        C265   1.471       .  S
H186        O187   0.966       .  S
O187       Ni195   1.932       .  S
O187       Ni189   1.920       .  S
O187       Ni194   1.910       .  S
O188       Ni189   1.942       .  S
Ni189       O193   1.920       .  S
Ni189       O191   1.930       .  S
O190       Ni195   1.920       .  S
C192        C249   1.465       .  S
C192        O193   1.270       .  A
O197       Ni203   1.930       .  S
O197        C218   1.273       .  A
O198       Ni221   1.926       .  S
O198        C207   1.272       .  A
O199       Ni203   1.907       .  S
O199       Ni221   1.919       .  S
O199       Ni215   1.918       .  S
O199        H222   0.967       .  S
C200        C281   1.463       .  S
C200        O217   1.275       .  A
C200        O209   1.276       .  A
O201       Ni220   1.914       .  S
O201        C207   1.266       .  A
O202       Ni220   1.910       .  S
O202        C204   1.268       .  A
Ni203       O206   1.926       .  S
Ni203       O208   1.905       .  S
C204        C502   1.466       .  S
C204        O214   1.270       .  A
O205       Ni221   1.923       .  S
O205        C211   1.276       .  A
O206        C211   1.274       .  A
C207        C246   1.469       .  S
O208        C210   1.269       .  A
O209       Ni220   1.920       .  S
C210        C233   1.474       .  S
C210        O216   1.275       .  A
C211        C521   1.473       .  S
H212        O213   0.966       .  S
O213       Ni221   1.915       .  S
O213       Ni215   1.898       .  S
O213       Ni220   1.899       .  S
O214       Ni215   1.927       .  S
Ni215       O219   1.905       .  S
Ni215       O217   1.917       .  S
O216       Ni221   1.946       .  S
C218        C486   1.473       .  S
C218        O219   1.266       .  A
C223        C228   1.381       .  A
C223        C224   1.403       .  A
C223        O229   1.320       .  A
C224        C225   1.404       .  A
C224        H235   1.082       .  S
C225        C234   1.360       .  A
C225        C226   1.381       .  A
C226        C227   1.403       .  A
C226        O232   1.321       .  A
C227        C228   1.403       .  A
C227        H236   1.082       .  S
C228        C231   1.359       .  A
O229        C230   1.331       .  A
C230        C231   1.392       .  A
C231        H237   1.083       .  S
O232        C233   1.332       .  A
C233        C234   1.392       .  A
C234        H238   1.082       .  S
C239        C244   1.380       .  A
C239        C240   1.406       .  A
C239        O245   1.317       .  A
C240        C943   1.403       .  A
C240        H953   1.082       .  S
C241        C250   1.364       .  A
C241        C942   1.400   1_554  A
C241        C944   1.380   1_554  A
C242        C243   1.402       .  A
C242        C943   1.380       .  A
C242        O248   1.313       .  A
C243        C244   1.399       .  A
C243        H252   1.082       .  S
C244        C247   1.364       .  A
O245        C246   1.332       .  A
C246        C247   1.389       .  A
C247        H253   1.082       .  S
O248        C951   1.330       .  A
C249        C250   1.390       .  A
C249        O950   1.330   1_554  A
C250        H254   1.082       .  S
H251        C942   1.082   1_554  S
C255        C260   1.380       .  A
C255        C256   1.406       .  A
C255        O261   1.321       .  A
C256        C257   1.405       .  A
C256        H267   1.082       .  S
C257        C266   1.366       .  A
C257        C258   1.380       .  A
C258        C259   1.404       .  A
C258        O264   1.318       .  A
C259        C260   1.402       .  A
C259        H268   1.082       .  S
C260        C263   1.362       .  A
O261        C262   1.332       .  A
C262        C263   1.392       .  A
C263        H269   1.083       .  S
O264        C265   1.331       .  A
C265        C266   1.392       .  A
C266        H270   1.082       .  S
C271        C276   1.381       .  A
C271        C272   1.403       .  A
C271        O277   1.320       .  A
C272        C273   1.403       .  A
C272        H283   1.082       .  S
C273        C282   1.360       .  A
C273        C274   1.381       .  A
C274        C275   1.399       .  A
C274        O280   1.316       .  A
C275        C276   1.399       .  A
C275        H284   1.082       .  S
C276        C279   1.356       .  A
O277        C278   1.331       .  A
C278        C279   1.389       .  A
C279        H285   1.083       .  S
O280        C281   1.328       .  A
C281        C282   1.391       .  A
C282        H286   1.083       .  S
C287        C292   1.381       .  A
C287        C288   1.401       .  A
C287        O293   1.316       .  A
C288        C289   1.400       .  A
C288        H299   1.082       .  S
C289        C298   1.358       .  A
C289        C290   1.381       .  A
C290        C291   1.404       .  A
C290        O296   1.320       .  A
C291        C292   1.403       .  A
C291        H300   1.082       .  S
C292        C295   1.363       .  A
O293        C294   1.330       .  A
C294        C295   1.391       .  A
C295        H301   1.082       .  S
O296        C297   1.331       .  A
C297        C298   1.390       .  A
C298        H302   1.083       .  S
C303        C308   1.381       .  A
C303        C304   1.400       .  A
C303        O309   1.316       .  A
C304        C305   1.400       .  A
C304        H315   1.082       .  S
C305        C314   1.358       .  A
C305        C306   1.380       .  A
C306        C307   1.404       .  A
C306        O312   1.320       .  A
C307        C308   1.404       .  A
C307        H316   1.082       .  S
C308        C311   1.362       .  A
O309        C310   1.329       .  A
C310        C311   1.392       .  A
C311        H317   1.083       .  S
O312        C313   1.332       .  A
C313        C314   1.390       .  A
C314        H318   1.083       .  S
C319        C320   1.403   1_565  A
C319       C1026   1.380   1_554  A
C319        O325   1.319       .  A
C320       C1023   1.402   1_554  A
C320        H331   1.082       .  S
C321        C330   1.355       .  A
C321        C322   1.380   1_545  A
C321       C1022   1.397       .  A
C322        C323   1.409       .  A
C322        O328   1.324       .  A
C323        C324   1.409       .  A
C323        H332   1.082       .  S
C324       C1021   1.381       .  A
C324       C1029   1.367       .  A
O325        C326   1.331       .  A
C326        C327   1.395       .  A
C327       C1026   1.368   1_554  A
C327       H1035   1.082   1_554  S
O328        C329   1.335   1_565  A
C329        C330   1.388       .  A
C330        H334   1.083       .  S
H333       C1029   1.082       .  S
C335        C340   1.381       .  A
C335        C336   1.404   1_565  A
C335        O341   1.321       .  A
C336        C337   1.405       .  A
C336        H347   1.082       .  S
C337        C346   1.362       .  A
C337        C338   1.381   1_545  A
C338        C339   1.400       .  A
C338        O344   1.318       .  A
C339        C340   1.400       .  A
C339        H348   1.082       .  S
C340        C343   1.357       .  A
O341        C342   1.331       .  A
C342        C343   1.390       .  A
C343        H349   1.083       .  S
O344        C345   1.329   1_565  A
C345        C346   1.392       .  A
C346        H350   1.082       .  S
C351        C356   1.381       .  A
C351        C352   1.402       .  A
C351        O357   1.320       .  A
C352        C353   1.402       .  A
C352        H363   1.082       .  S
C353        C362   1.359       .  A
C353        C354   1.381       .  A
C354        C355   1.401       .  A
C354        O360   1.319       .  A
C355        C356   1.401       .  A
C355        H364   1.082       .  S
C356        C359   1.358       .  A
O357        C358   1.330       .  A
C358        C359   1.391       .  A
C359        H365   1.083       .  S
O360        C361   1.330       .  A
C361        C362   1.391       .  A
C362        H366   1.083       .  S
C367        C372   1.381       .  A
C367        C368   1.402       .  A
C367        O373   1.318       .  A
C368        C369   1.402       .  A
C368        H379   1.082       .  S
C369        C378   1.361       .  A
C369        C370   1.381       .  A
C370        C371   1.399       .  A
C370        O376   1.316       .  A
C371        C372   1.399       .  A
C371        H380   1.082       .  S
C372        C375   1.356       .  A
O373        C374   1.330       .  A
C374        C375   1.389       .  A
C375        H381   1.083       .  S
O376        C377   1.329       .  A
C377        C378   1.390       .  A
C378        H382   1.082       .  S
C383        C388   1.381   1_455  A
C383        C384   1.407       .  A
C383        O389   1.323       .  A
C384        C385   1.406       .  A
C384        H395   1.082       .  S
C385       C1096   1.364       .  A
C385       C1088   1.381       .  A
C386        C387   1.399   1_455  A
C386       C1087   1.381       .  A
C386        O392   1.315       .  A
C387       C1090   1.398   1_554  A
C387        H396   1.082       .  S
C388        C391   1.355       .  A
C388       C1089   1.398       .  A
O389        C390   1.333   1_455  A
C390        C391   1.389       .  A
C391        H397   1.083       .  S
O392        C393   1.329       .  A
C393        C394   1.392       .  A
C394       C1087   1.364       .  A
C394        H398   1.082   1_554  S
C399        C404   1.381       .  A
C399        C400   1.407       .  A
C399        O405   1.325       .  A
C400        C401   1.408       .  A
C400        H411   1.082       .  S
C401        C410   1.364       .  A
C401        C402   1.381       .  A
C402        C403   1.398       .  A
C402        O408   1.318       .  A
C403        C404   1.399       .  A
C403        H412   1.082   1_655  S
C404        C407   1.354   1_655  A
O405        C406   1.333   1_655  A
C406        C407   1.390       .  A
C407        H413   1.083       .  S
O408        C409   1.328       .  A
C409        C410   1.394       .  A
C410        H414   1.082       .  S
C415        C420   1.381       .  A
C415        C416   1.397       .  A
C415        O421   1.312       .  A
C416        C417   1.396       .  A
C416        H427   1.083       .  S
C417        C426   1.354       .  A
C417        C418   1.378       .  A
C418        C419   1.407       .  A
C418        O424   1.320       .  A
C419        C420   1.406       .  A
C419        H428   1.082       .  S
C420        C423   1.367       .  A
O421        C422   1.328       .  A
C422        C423   1.393       .  A
C423        H429   1.082       .  S
O424        C425   1.335       .  A
C425        C426   1.394       .  A
C426        H430   1.081       .  S
C431        C436   1.380       .  A
C431        C432   1.412       .  A
C431        O437   1.325       .  A
C432        C433   1.410       .  A
C432        H443   1.082       .  S
C433        C442   1.372       .  A
C433        C434   1.379       .  A
C434        C435   1.396       .  A
C434        O440   1.310       .  A
C435        C436   1.394       .  A
C435        H444   1.083       .  S
C436       C1141   1.354       .  A
O437       C1140   1.335       .  A
C438        C439   1.385       .  A
C438       O1139   1.330       .  A
C439       C1138   1.355   1_554  A
C439        H445   1.083       .  S
O440        C441   1.329       .  A
C441        C442   1.399       .  A
C442        H446   1.082       .  S
C447        C452   1.380       .  A
C447        C448   1.397       .  A
C447        O453   1.312       .  A
C448        C449   1.396       .  A
C448        H459   1.083       .  S
C449        C458   1.354       .  A
C449        C450   1.380       .  A
C450        C451   1.407       .  A
C450        O456   1.322       .  A
C451        C452   1.407       .  A
C451        H460   1.082       .  S
C452        C455   1.367       .  A
O453        C454   1.329       .  A
C454        C455   1.395       .  A
C455        H461   1.082       .  S
O456        C457   1.333       .  A
C457        C458   1.389       .  A
C458        H462   1.083       .  S
C463        C468   1.380       .  A
C463        C464   1.406       .  A
C463        O469   1.326       .  A
C464        C465   1.408       .  A
C464        H475   1.082       .  S
C465        C474   1.362       .  A
C465        C466   1.379       .  A
C466        C467   1.401       .  A
C466        O472   1.320       .  A
C467        C468   1.402       .  A
C467        H476   1.082       .  S
C468        C471   1.355       .  A
O469        C470   1.333       .  A
C470        C471   1.392       .  A
C471        H477   1.083       .  S
O472        C473   1.331       .  A
C473        C474   1.398       .  A
C474        H478   1.082       .  S
C479        C484   1.380       .  A
C479        C480   1.411       .  A
C479        O485   1.325       .  A
C480        C481   1.410       .  A
C480        H491   1.082       .  S
C481        C490   1.370       .  A
C481        C482   1.380       .  A
C482        C483   1.396       .  A
C482        O488   1.313       .  A
C483        C484   1.395       .  A
C483        H492   1.082       .  S
C484        C487   1.353       .  A
O485        C486   1.335       .  A
C486        C487   1.388       .  A
C487        H493   1.083       .  S
O488        C489   1.328       .  A
C489        C490   1.398       .  A
C490        H494   1.082       .  S
C495        C500   1.380       .  A
C495        C496   1.411       .  A
C495        O501   1.322       .  A
C496       C1199   1.408       .  A
C496       H1209   1.082       .  S
C497        C506   1.373       .  A
C497       C1198   1.410       .  A
C497       C1200   1.378   1_556  A
C498        C499   1.400       .  A
C498       C1199   1.378       .  A
C498        O504   1.311       .  A
C499        C500   1.397       .  A
C499        H508   1.083       .  S
C500        C503   1.360       .  A
O501        C502   1.333       .  A
C502        C503   1.387       .  A
C503        H509   1.083       .  S
O504       C1207   1.331       .  A
C505        C506   1.398   1_554  A
C505       O1206   1.332       .  A
C506        H510   1.082       .  S
H507       C1198   1.082       .  S
C511        C516   1.378       .  A
C511        C512   1.411       .  A
C511        O517   1.322       .  A
C512        C513   1.408       .  A
C512        H523   1.082       .  S
C513        C522   1.372       .  A
C513        C514   1.380       .  A
C514        C515   1.400       .  A
C514        O520   1.313       .  A
C515        C516   1.397       .  A
C515        H524   1.082       .  S
C516        C519   1.358       .  A
O517        C518   1.337       .  A
C518        C519   1.392       .  A
C519        H525   1.082       .  S
O520        C521   1.330       .  A
C521        C522   1.395       .  A
C522        H526   1.082       .  S
C527        C532   1.381       .  A
C527        C528   1.394       .  A
C527        O533   1.313       .  A
C528        C529   1.394       .  A
C528        H539   1.083       .  S
C529        C538   1.346       .  A
C529        C530   1.380       .  A
C530        C531   1.412       .  A
C530       O1238   1.330       .  A
C531        C532   1.413       .  A
C531        H540   1.082       .  S
C532        C535   1.371       .  A
O533        C534   1.327       .  A
C534        C535   1.396       .  A
C535        H541   1.082       .  S
O536        C537   1.334       .  A
O536       C1232   1.325       .  A
C537       C1240   1.388       .  A
C538       C1239   1.389       .  A
C538        H542   1.083       .  S
C543        C548   1.379       .  A
C543        C544   1.398       .  A
C543        O549   1.314       .  A
C544        C545   1.397       .  A
C544        H555   1.082       .  S
C545        C554   1.354       .  A
C545        C546   1.378       .  A
C546        C547   1.416       .  A
C546        O552   1.330       .  A
C547        C548   1.416       .  A
C547        H556   1.082       .  S
C548        C551   1.379       .  A
O549        C550   1.330       .  A
C550        C551   1.400       .  A
C551        H557   1.082       .  S
O552        C553   1.339       .  A
C553        C554   1.391       .  A
C554        H558   1.082       .  S
C559        C564   1.378       .  A
C559        C560   1.409       .  A
C559        O565   1.321       .  A
C560        C561   1.407       .  A
C560        H571   1.082       .  S
C561        C570   1.370       .  A
C561        C562   1.380       .  A
C562        C563   1.404       .  A
C562        O568   1.317       .  A
C563        C564   1.402       .  A
C563        H572   1.082       .  S
C564        C567   1.364       .  A
O565        C566   1.336       .  A
C566        C567   1.394       .  A
C567        H573   1.082       .  S
O568        C569   1.332       .  A
C569        C570   1.394       .  A
C570        H574   1.082       .  S
C575        C580   1.380       .  A
C575        C576   1.397       .  A
C575        O581   1.312       .  A
C576        C577   1.396       .  A
C576        H587   1.083       .  S
C577        C586   1.354       .  A
C577        C578   1.380       .  A
C578        C579   1.410       .  A
C578        O584   1.324       .  A
C579        C580   1.409       .  A
C579        H588   1.082       .  S
C580        C583   1.370       .  A
O581        C582   1.328       .  A
C582        C583   1.395       .  A
C583        H589   1.082       .  S
O584        C585   1.334       .  A
C585        C586   1.390       .  A
C586        H590   1.083       .  S
C591        C596   1.380       .  A
C591        C592   1.413       .  A
C591        O597   1.326       .  A
C592        C593   1.411       .  A
C592        H603   1.082       .  S
C593       C1304   1.374       .  A
C593       C1296   1.378       .  A
C594       C1295   1.378       .  A
C594       C1297   1.400       .  A
C594        O600   1.315       .  A
C595        C596   1.398       .  A
C595       C1296   1.400       .  A
C595       H1306   1.082       .  S
C596        C599   1.358       .  A
O597        C598   1.335       .  A
C598        C599   1.388       .  A
C599        H605   1.083       .  S
O600        C601   1.332       .  A
C601        C602   1.399       .  A
C602       C1295   1.375       .  A
C602       H1308   1.082       .  S
H604       C1297   1.083       .  S
H606       C1304   1.082       .  S
C607        C612   1.380       .  A
C607        C608   1.400       .  A
C607        O613   1.316       .  A
C608        C609   1.400       .  A
C608        H619   1.082       .  S
C609        C618   1.355       .  A
C609        C610   1.378       .  A
C610        C611   1.408       .  A
C610        O616   1.324       .  A
C611        C612   1.408       .  A
C611        H620   1.082       .  S
C612        C615   1.367       .  A
O613        C614   1.330       .  A
C614        C615   1.394       .  A
C615        H621   1.082       .  S
O616        C617   1.336       .  A
C617        C618   1.397       .  A
C618        H622   1.081       .  S
C623        C628   1.379       .  A
C623        C624   1.413       .  A
C623        O629   1.328       .  A
C624        C625   1.413       .  A
C624        H635   1.082       .  S
C625        C626   1.380       .  A
C625       C1336   1.374       .  A
C626        C627   1.397       .  A
C626        O632   1.313       .  A
C627        C628   1.396       .  A
C627        H636   1.083       .  S
C628        C631   1.354       .  A
O629        C630   1.336       .  A
C630        C631   1.389       .  A
C631        H637   1.083       .  S
O632       C1335   1.329       .  A
C633        C634   1.394       .  A
C633       O1334   1.328       .  A
C634       C1327   1.371       .  A
C634        H638   1.082       .  S
C639        C644   1.380       .  A
C639        C640   1.408       .  A
C639        O645   1.324       .  A
C640        C641   1.408       .  A
C640        H651   1.082       .  S
C641        C650   1.367       .  A
C641        C642   1.379       .  A
C642        C643   1.397       .  A
C642        O648   1.314       .  A
C643        C644   1.397       .  A
C643        H652   1.082       .  S
C644        C647   1.353       .  A
O645        C646   1.333       .  A
C646        C647   1.389       .  A
C647        H653   1.083       .  S
O648        C649   1.329       .  A
C649        C650   1.399       .  A
C650        H654   1.082       .  S
C655        C660   1.379       .  A
C655        C656   1.399       .  A
C655        O661   1.316       .  A
C656        C657   1.399       .  A
C656        H667   1.082       .  S
C657        C666   1.355       .  A
C657        C658   1.376       .  A
C658        C659   1.415       .  A
C658        O664   1.329       .  A
C659        C660   1.415       .  A
C659        H668   1.082       .  S
C660        C663   1.377       .  A
O661        C662   1.330       .  A
C662        C663   1.399       .  A
C663        H669   1.082       .  S
O664        C665   1.340       .  A
C665        C666   1.396       .  A
C666        H670   1.080       .  S
C671        C676   1.380       .  A
C671        C672   1.409       .  A
C671        O677   1.322       .  A
C672        C673   1.407       .  A
C672        H683   1.082       .  S
C673        C682   1.370       .  A
C673        C674   1.380       .  A
C674        C675   1.399       .  A
C674        O680   1.313       .  A
C675        C676   1.398       .  A
C675        H684   1.083       .  S
C676        C679   1.357       .  A
O677        C678   1.334       .  A
C678        C679   1.391       .  A
C679        H685   1.083       .  S
O680        C681   1.329       .  A
C681        C682   1.394       .  A
C682        H686   1.082       .  S
C687        C692   1.380   1_556  A
C687       C1390   1.410       .  A
C687        O693   1.326   1_556  A
C688        C689   1.401       .  A
C688       C1389   1.403       .  A
C688        H699   1.082       .  S
C689        C698   1.364       .  A
C689        C690   1.380       .  A
C690       C1393   1.410       .  A
C690        O696   1.323       .  A
C691        C692   1.400   1_556  A
C691       C1392   1.400       .  A
C691        H700   1.082   1_556  S
C692        C695   1.357       .  A
O693        C694   1.334       .  A
C694        C695   1.391       .  A
C695        H701   1.083       .  S
O696        C697   1.333       .  A
C697        C698   1.389       .  A
C698        H702   1.082       .  S
C703        C704   1.412       .  A
C703        C708   1.414       .  A
C703       C1367   1.489       .  S
C704        C705   1.397       .  A
C704        H709   1.083       .  S
C705        C706   1.398       .  A
C705       C1380   1.478       .  S
C706        C707   1.403       .  A
C706        H710   1.084       .  S
C707        C708   1.413       .  A
C707       C1396   1.486       .  S
C708        H711   1.083       .  S
C712        C713   1.409       .  A
C712        C717   1.409       .  A
C712       C1319   1.484       .  S
C713        C714   1.400       .  A
C713        H718   1.078       .  S
C714        C715   1.401       .  A
C714       C1351   1.481       .  S
C715        C716   1.403       .  A
C715        H719   1.084       .  S
C716        C717   1.403       .  A
C716       C1332   1.474       .  S
C717        H720   1.084       .  S
C721        C722   1.420       .  A
C721        C726   1.408       .  A
C721       C1268   1.491       .  S
C722        C723   1.413       .  A
C722        H727   1.081       .  S
C723        C724   1.403       .  A
C723       C1303   1.494       .  S
C724        C725   1.399       .  A
C724        H728   1.083       .  S
C725        C726   1.399       .  A
C725       C1287   1.477       .  S
C726        H729   1.084       .  S
C730        C731   1.418       .  A
C730        C735   1.410       .  A
C730       C1220   1.489       .  S
C731        C732   1.408       .  A
C731        H736   1.081       .  S
C732        C733   1.401       .  A
C732       C1255   1.484       .  S
C733        C734   1.395       .  A
C733        H737   1.084       .  S
C734        C735   1.398       .  A
C734       C1236   1.471       .  S
C735        H738   1.084       .  S
C739        C740   1.419       .  A
C739        C744   1.409       .  A
C739       C1175   1.490       .  S
C740        C741   1.412       .  A
C740        H745   1.083       .  S
C741        C742   1.400       .  A
C741       C1207   1.489       .  S
C742        C743   1.394       .  A
C742        H746   1.083       .  S
C743        C744   1.399       .  A
C743       C1191   1.476       .  S
C744        H747   1.080       .  S
C748        C749   1.410       .  A
C748        C753   1.411       .  A
C748       C1127   1.486       .  S
C749        C750   1.406       .  A
C749        H754   1.082       .  S
C750        C751   1.400       .  A
C750       C1143   1.480       .  S
C751        C752   1.395       .  A
C751        H755   1.084       .  S
C752        C753   1.399       .  A
C752       C1156   1.475       .  S
C753        H756   1.079       .  S
O757       Ni763   1.915       .  S
O757        C778   1.270       .  A
O758       Ni781   1.913       .  S
O758        C767   1.266       .  A
O759       Ni763   1.914       .  S
O759       Ni781   1.917       .  S
O759       Ni775   1.930       .  S
O759        H782   0.966       .  S
C760       C1076   1.464       .  S
C760        O777   1.277       .  A
C760        O769   1.277       .  A
O761       Ni780   1.925       .  S
O761        C767   1.269       .  A
O762       Ni780   1.904       .  S
O762        C764   1.268       .  A
Ni763       O766   1.933       .  S
Ni763       O768   1.912       .  S
C764       C1300   1.484       .  S
C764        O774   1.278       .  A
O765       Ni781   1.913       .  S
O765        C771   1.269   1_655  A
O766        C771   1.272   1_655  A
C767       C1092   1.464       .  S
O768        C770   1.269       .  A
O769       Ni780   1.922       .  S
C770       C1111   1.475       .  S
C770        O776   1.276       .  A
C771       C1124   1.468       .  S
H772        O773   0.966       .  S
O773       Ni781   1.901       .  S
O773       Ni775   1.896       .  S
O773       Ni780   1.893       .  S
O774       Ni775   1.951       .  S
Ni775       O779   1.916       .  S
Ni775       O777   1.917       .  S
O776       Ni781   1.952       .  S
C778       C1284   1.469       .  S
C778        O779   1.271       .  A
O783       Ni789   1.917       .  S
O783        C804   1.270       .  A
O784       Ni807   1.941       .  S
O784        C793   1.272       .  A
O785       Ni789   1.910       .  S
O785       Ni807   1.931       .  S
O785       Ni801   1.943       .  S
O785        H808   0.966       .  S
C786       C1063   1.466       .  S
C786        O803   1.280       .  A
C786        O795   1.277       .  A
O787       Ni806   1.907       .  S
O787        C793   1.264       .  A
O788       Ni806   1.891       .  S
O788        C790   1.265       .  A
Ni789       O792   1.927   1_455  S
Ni789       O794   1.904       .  S
C790       C1348   1.467       .  S
C790        O800   1.271       .  A
O791       Ni807   1.926   1_655  S
O791        C797   1.272       .  A
O792        C797   1.272       .  A
C793       C1108   1.477       .  S
O794        C796   1.271       .  A
O795       Ni806   1.915       .  S
C796       C1095   1.467       .  S
C796        O802   1.278       .  A
C797       C1172   1.480       .  S
H798        O799   0.966       .  S
O799       Ni807   1.910       .  S
O799       Ni801   1.895       .  S
O799       Ni806   1.890       .  S
O800       Ni801   1.934       .  S
Ni801       O805   1.921       .  S
Ni801       O803   1.927       .  S
O802       Ni807   1.946       .  S
C804       C1335   1.476       .  S
C804        O805   1.271       .  A
O809       Ni815   1.923       .  S
O809        C830   1.272       .  A
O810       Ni833   1.920       .  S
O810        C819   1.270       .  A
O811       Ni815   1.911       .  S
O811       Ni833   1.918       .  S
O811       Ni827   1.925       .  S
O811        H834   0.966       .  S
C812       C1015   1.465       .  S
C812        O829   1.276       .  A
C812        O821   1.277       .  A
O813       Ni832   1.930       .  S
O813        C819   1.272       .  A
O814       Ni832   1.908       .  S
O814        C816   1.269       .  A
Ni815       O818   1.935   1_545  S
Ni815       O820   1.904       .  S
C816       C1399   1.475       .  S
C816        O826   1.275       .  A
O817       Ni833   1.907   1_565  S
O817        C823   1.270       .  A
O818        C823   1.274       .  A
C819       C1031   1.475       .  S
O820        C822   1.268       .  A
O821       Ni832   1.922       .  S
C822       C1047   1.469       .  S
C822        O828   1.276       .  A
C823       C1316   1.468       .  S
H824        O825   0.965       .  S
O825       Ni833   1.903       .  S
O825       Ni827   1.895       .  S
O825       Ni832   1.895       .  S
O826       Ni827   1.937       .  S
Ni827       O831   1.913       .  S
Ni827       O829   1.917       .  S
O828       Ni833   1.946       .  S
C830       C1383   1.472       .  S
C830        O831   1.270       .  A
O835       Ni841   1.911       .  S
O835        C856   1.270       .  A
O836       Ni859   1.920       .  S
O836        C845   1.269       .  A
O837       Ni841   1.907       .  S
O837       Ni859   1.917       .  S
O837       Ni853   1.928       .  S
O837        H860   0.965       .  S
C838        C999   1.469       .  S
C838        O855   1.279       .  A
C838        O847   1.278       .  A
O839       Ni858   1.923       .  S
O839        C845   1.269       .  A
O840       Ni858   1.902       .  S
O840        C842   1.268       .  A
Ni841       O844   1.931       .  S
Ni841       O846   1.908       .  S
C842       C1252   1.475       .  S
C842        O852   1.277       .  A
O843       Ni859   1.930       .  S
O843        C849   1.277       .  A
O844        C849   1.274       .  A
C845       C1044   1.468       .  S
O846        C848   1.266       .  A
O847       Ni858   1.922       .  S
C848       C1028   1.469       .  S
C848        O854   1.272       .  A
C849       C1271   1.482   1_565  S
H850        O851   0.966       .  S
O851       Ni859   1.917       .  S
O851       Ni853   1.899       .  S
O851       Ni858   1.890       .  S
O852       Ni853   1.943       .  S
Ni853       O857   1.925       .  S
Ni853       O855   1.929       .  S
O854       Ni859   1.938       .  S
C856       C1239   1.475       .  S
C856        O857   1.272       .  A
C861        C980   1.465       .  S
C861        N862   1.357       .  A
C861        N866   1.360       .  A
N862        C863   1.355       .  A
C863       C1079   1.462       .  S
C863        N864   1.355       .  A
N864        C865   1.355       .  A
C865       C1012   1.464       .  S
C865        N866   1.360       .  A
C867        C964   1.469       .  S
C867        N868   1.360       .  A
C867        N872   1.361       .  A
N868        C869   1.357       .  A
C869        C996   1.466       .  S
C869        N870   1.353       .  A
N870        C871   1.355       .  A
C871       C1060   1.467       .  S
C871        N872   1.359       .  A
O873       Ni879   1.917       .  S
O873        C894   1.266       .  A
O874       Ni897   1.908       .  S
O874        C883   1.267       .  A
O875       Ni879   1.897       .  S
O875       Ni897   1.905       .  S
O875       Ni891   1.916       .  S
O875        H898   0.966       .  S
C876       C1364   1.476       .  S
C876        O893   1.275       .  A
C876        O885   1.273       .  A
O877       Ni896   1.919       .  S
O877        C883   1.270       .  A
O878       Ni896   1.904       .  S
O878        C880   1.267       .  A
Ni879       O882   1.916       .  S
Ni879       O884   1.900       .  S
C880        C932   1.471       .  S
C880        O890   1.273       .  A
O881       Ni897   1.930       .  S
O881        C887   1.278       .  A
O882        C887   1.275       .  A
C883       C1159   1.466       .  S
O884        C886   1.267       .  A
O885       Ni896   1.921       .  S
C886       C1140   1.467       .  S
C886        O892   1.272       .  A
C887        C967   1.468       .  S
H888        O889   0.966       .  S
O889       Ni897   1.926       .  S
O889       Ni891   1.921       .  S
O889       Ni896   1.911       .  S
O890       Ni891   1.935       .  S
Ni891       O895   1.922       .  S
Ni891       O893   1.926       .  S
O892       Ni897   1.935       .  S
C894        C951   1.468       .  S
C894        O895   1.269       .  A
O899       Ni905   1.915       .  S
O899        C920   1.271       .  A
O900       Ni923   1.916       .  S
O900        C909   1.268       .  A
O901       Ni905   1.914       .  S
O901       Ni923   1.912       .  S
O901       Ni917   1.934       .  S
O901        H924   0.966       .  S
C902        C983   1.465       .  S
C902        O919   1.281       .  A
C902        O911   1.275       .  A
O903       Ni922   1.910       .  S
O903        C909   1.265       .  A
O904       Ni922   1.906       .  S
O904        C906   1.267       .  A
Ni905       O908   1.933       .  S
Ni905       O910   1.900       .  S
C906       C1204   1.471       .  S
C906        O916   1.273       .  A
O907       Ni923   1.916       .  S
O907        C913   1.271       .  A
O908        C913   1.271       .  A
C909        C948   1.463       .  S
O910        C912   1.269       .  A
O911       Ni922   1.912       .  S
C912        C935   1.472       .  S
C912        O918   1.278       .  A
C913       C1223   1.472       .  S
H914        O915   0.966       .  S
O915       Ni923   1.911       .  S
O915       Ni917   1.896       .  S
O915       Ni922   1.897       .  S
O916       Ni917   1.937       .  S
Ni917       O921   1.910       .  S
Ni917       O919   1.931       .  S
O918       Ni923   1.954       .  S
C920       C1188   1.467       .  S
C920        O921   1.270       .  A
C925        C930   1.381       .  A
C925        C926   1.401       .  A
C925        O931   1.318       .  A
C926        C927   1.401       .  A
C926        H937   1.082       .  S
C927        C936   1.358       .  A
C927        C928   1.380       .  A
C928        C929   1.405       .  A
C928        O934   1.321       .  A
C929        C930   1.405       .  A
C929        H938   1.082       .  S
C930        C933   1.362       .  A
O931        C932   1.330       .  A
C932        C933   1.393       .  A
C933        H939   1.083       .  S
O934        C935   1.332       .  A
C935        C936   1.391       .  A
C936        H940   1.083       .  S
C941        C946   1.380       .  A
C941        C942   1.403       .  A
C941        O947   1.315       .  A
C943        C952   1.368       .  A
C944        C945   1.402       .  A
C944        O950   1.314       .  A
C945        C946   1.400       .  A
C945        H954   1.082       .  S
C946        C949   1.363       .  A
O947        C948   1.330       .  A
C948        C949   1.389       .  A
C949        H955   1.082       .  S
C951        C952   1.392       .  A
C952        H956   1.082       .  S
C957        C962   1.380       .  A
C957        C958   1.406       .  A
C957        O963   1.320       .  A
C958        C959   1.405       .  A
C958        H969   1.082       .  S
C959        C968   1.367       .  A
C959        C960   1.381       .  A
C960        C961   1.400       .  A
C960        O966   1.315       .  A
C961        C962   1.399       .  A
C961        H970   1.082       .  S
C962        C965   1.359       .  A
O963        C964   1.332       .  A
C964        C965   1.390       .  A
C965        H971   1.083       .  S
O966        C967   1.329       .  A
C967        C968   1.393       .  A
C968        H972   1.083       .  S
C973        C978   1.381       .  A
C973        C974   1.401       .  A
C973        O979   1.315       .  A
C974        C975   1.399       .  A
C974        H985   1.082       .  S
C975        C984   1.360       .  A
C975        C976   1.380       .  A
C976        C977   1.404       .  A
C976        O982   1.317       .  A
C977        C978   1.402       .  A
C977        H986   1.082       .  S
C978        C981   1.363       .  A
O979        C980   1.329       .  A
C980        C981   1.391       .  A
C981        H987   1.082       .  S
O982        C983   1.332       .  A
C983        C984   1.389       .  A
C984        H988   1.082       .  S
C989        C994   1.381       .  A
C989        C990   1.402       .  A
C989        O995   1.316       .  A
C990        C991   1.401       .  A
C990       H1001   1.082       .  S
C991       C1000   1.361       .  A
C991        C992   1.380       .  A
C992        C993   1.404       .  A
C992        O998   1.318       .  A
C993        C994   1.402       .  A
C993       H1002   1.082       .  S
C994        C997   1.363       .  A
O995        C996   1.330       .  A
C996        C997   1.391       .  A
C997       H1003   1.082       .  S
O998        C999   1.331       .  A
C999       C1000   1.391       .  A
C1000      H1004   1.083       .  S
C1005      C1010   1.381       .  A
C1005      C1006   1.402       .  A
C1005      O1011   1.316       .  A
C1006      C1007   1.400       .  A
C1006      H1017   1.082       .  S
C1007      C1016   1.361       .  A
C1007      C1008   1.381       .  A
C1008      C1009   1.402       .  A
C1008      O1014   1.316       .  A
C1009      C1010   1.401       .  A
C1009      H1018   1.082       .  S
C1010      C1013   1.362       .  A
O1011      C1012   1.330       .  A
C1012      C1013   1.390       .  A
C1013      H1019   1.082       .  S
O1014      C1015   1.330       .  A
C1015      C1016   1.391       .  A
C1016      H1020   1.083       .  S
C1021      C1022   1.397   1_565  A
C1021      O1027   1.315       .  A
C1022      H1033   1.082       .  S
C1023      C1032   1.361       .  A
C1023      C1024   1.380   1_545  A
C1024      C1025   1.408       .  A
C1024      O1030   1.323       .  A
C1025      C1026   1.408       .  A
C1025      H1034   1.082       .  S
O1027      C1028   1.327       .  A
C1028      C1029   1.395       .  A
O1030      C1031   1.333   1_565  A
C1031      C1032   1.391       .  A
C1032      H1036   1.083       .  S
C1037      C1042   1.381       .  A
C1037      C1038   1.405   1_565  A
C1037      O1043   1.322       .  A
C1038      C1039   1.405       .  A
C1038      H1049   1.082       .  S
C1039      C1048   1.362       .  A
C1039      C1040   1.381   1_545  A
C1040      C1041   1.400       .  A
C1040      O1046   1.318       .  A
C1041      C1042   1.400       .  A
C1041      H1050   1.082       .  S
C1042      C1045   1.356       .  A
O1043      C1044   1.331       .  A
C1044      C1045   1.389       .  A
C1045      H1051   1.083       .  S
O1046      C1047   1.329   1_565  A
C1047      C1048   1.393       .  A
C1048      H1052   1.082       .  S
C1053      C1058   1.381       .  A
C1053      C1054   1.403       .  A
C1053      O1059   1.320       .  A
C1054      C1055   1.403       .  A
C1054      H1065   1.082       .  S
C1055      C1064   1.360       .  A
C1055      C1056   1.381       .  A
C1056      C1057   1.399       .  A
C1056      O1062   1.317       .  A
C1057      C1058   1.399       .  A
C1057      H1066   1.082       .  S
C1058      C1061   1.355       .  A
O1059      C1060   1.331       .  A
C1060      C1061   1.390       .  A
C1061      H1067   1.083       .  S
O1062      C1063   1.329       .  A
C1063      C1064   1.392       .  A
C1064      H1068   1.083       .  S
C1069      C1074   1.381       .  A
C1069      C1070   1.403       .  A
C1069      O1075   1.317       .  A
C1070      C1071   1.401       .  A
C1070      H1081   1.082       .  S
C1071      C1080   1.361       .  A
C1071      C1072   1.381       .  A
C1072      C1073   1.400       .  A
C1072      O1078   1.315       .  A
C1073      C1074   1.399       .  A
C1073      H1082   1.082       .  S
C1074      C1077   1.358       .  A
O1075      C1076   1.330       .  A
C1076      C1077   1.389       .  A
C1077      H1083   1.083       .  S
O1078      C1079   1.328       .  A
C1079      C1080   1.390       .  A
C1080      H1084   1.083       .  S
C1085      C1090   1.381   1_455  A
C1085      C1086   1.405       .  A
C1085      O1091   1.320       .  A
C1086      C1087   1.404   1_556  A
C1086      H1097   1.082       .  S
C1088      C1089   1.398   1_455  A
C1088      O1094   1.316       .  A
C1089      H1098   1.082       .  S
C1090      C1093   1.357       .  A
O1091      C1092   1.331   1_455  A
C1092      C1093   1.388       .  A
C1093      H1099   1.083       .  S
O1094      C1095   1.328       .  A
C1095      C1096   1.394       .  A
C1096      H1100   1.083       .  S
C1101      C1106   1.380   1_655  A
C1101      C1102   1.409       .  A
C1101      O1107   1.327       .  A
C1102      C1103   1.410       .  A
C1102      H1113   1.082       .  S
C1103      C1112   1.368       .  A
C1103      C1104   1.381       .  A
C1104      C1105   1.399   1_655  A
C1104      O1110   1.318       .  A
C1105      C1106   1.400       .  A
C1105      H1114   1.082       .  S
C1106      C1109   1.354       .  A
O1107      C1108   1.334   1_655  A
C1108      C1109   1.391       .  A
C1109      H1115   1.083       .  S
O1110      C1111   1.329       .  A
C1111      C1112   1.396       .  A
C1112      H1116   1.082       .  S
C1117      C1122   1.380       .  A
C1117      C1118   1.397       .  A
C1117      O1123   1.313       .  A
C1118      C1119   1.396       .  A
C1118      H1129   1.083       .  S
C1119      C1128   1.354       .  A
C1119      C1120   1.378       .  A
C1120      C1121   1.408       .  A
C1120      O1126   1.321       .  A
C1121      C1122   1.407       .  A
C1121      H1130   1.082       .  S
C1122      C1125   1.369       .  A
O1123      C1124   1.328       .  A
C1124      C1125   1.394       .  A
C1125      H1131   1.082       .  S
O1126      C1127   1.335       .  A
C1127      C1128   1.394       .  A
C1128      H1132   1.081       .  S
C1133      C1138   1.381   1_554  A
C1133      C1134   1.406       .  A
C1133      O1139   1.320       .  A
C1134      C1135   1.404   1_554  A
C1134      H1145   1.082       .  S
C1135      C1144   1.366       .  A
C1135      C1136   1.379       .  A
C1136      C1137   1.397       .  A
C1136      O1142   1.310       .  A
C1137      C1138   1.395       .  A
C1137      H1146   1.083       .  S
C1140      C1141   1.386       .  A
C1141      H1147   1.083       .  S
O1142      C1143   1.330       .  A
C1143      C1144   1.395       .  A
C1144      H1148   1.082       .  S
C1149      C1154   1.380       .  A
C1149      C1150   1.396       .  A
C1149      O1155   1.312       .  A
C1150      C1151   1.396       .  A
C1150      H1161   1.083       .  S
C1151      C1160   1.351       .  A
C1151      C1152   1.381       .  A
C1152      C1153   1.405       .  A
C1152      O1158   1.322       .  A
C1153      C1154   1.405       .  A
C1153      H1162   1.082       .  S
C1154      C1157   1.364       .  A
O1155      C1156   1.329       .  A
C1156      C1157   1.394       .  A
C1157      H1163   1.082       .  S
O1158      C1159   1.331       .  A
C1159      C1160   1.389       .  A
C1160      H1164   1.083       .  S
C1165      C1170   1.380       .  A
C1165      C1166   1.409       .  A
C1165      O1171   1.328       .  A
C1166      C1167   1.410       .  A
C1166      H1177   1.082       .  S
C1167      C1176   1.363       .  A
C1167      C1168   1.379       .  A
C1168      C1169   1.399       .  A
C1168      O1174   1.320       .  A
C1169      C1170   1.401       .  A
C1169      H1178   1.082       .  S
C1170      C1173   1.353       .  A
O1171      C1172   1.335       .  A
C1172      C1173   1.391       .  A
C1173      H1179   1.083       .  S
O1174      C1175   1.330       .  A
C1175      C1176   1.401       .  A
C1176      H1180   1.081       .  S
C1181      C1186   1.381       .  A
C1181      C1182   1.404       .  A
C1181      O1187   1.321       .  A
C1182      C1183   1.404       .  A
C1182      H1193   1.082       .  S
C1183      C1192   1.364       .  A
C1183      C1184   1.380       .  A
C1184      C1185   1.397       .  A
C1184      O1190   1.312       .  A
C1185      C1186   1.397       .  A
C1185      H1194   1.083       .  S
C1186      C1189   1.353       .  A
O1187      C1188   1.331       .  A
C1188      C1189   1.390       .  A
C1189      H1195   1.083       .  S
O1190      C1191   1.330       .  A
C1191      C1192   1.394       .  A
C1192      H1196   1.082       .  S
C1197      C1202   1.380       .  A
C1197      C1198   1.411       .  A
C1197      O1203   1.325       .  A
C1199      C1208   1.374       .  A
C1200      C1201   1.401   1_554  A
C1200      O1206   1.315       .  A
C1201      C1202   1.399       .  A
C1201      H1210   1.082   1_556  S
C1202      C1205   1.360       .  A
O1203      C1204   1.335       .  A
C1204      C1205   1.388       .  A
C1205      H1211   1.083       .  S
C1207      C1208   1.397       .  A
C1208      H1212   1.082       .  S
C1213      C1218   1.378       .  A
C1213      C1214   1.405       .  A
C1213      O1219   1.317       .  A
C1214      C1215   1.403       .  A
C1214      H1225   1.082       .  S
C1215      C1224   1.366       .  A
C1215      C1216   1.380       .  A
C1216      C1217   1.405       .  A
C1216      O1222   1.318       .  A
C1217      C1218   1.403       .  A
C1217      H1226   1.082       .  S
C1218      C1221   1.365       .  A
O1219      C1220   1.334       .  A
C1220      C1221   1.396       .  A
C1221      H1227   1.081       .  S
O1222      C1223   1.332       .  A
C1223      C1224   1.391       .  A
C1224      H1228   1.082       .  S
C1229      C1234   1.381       .  A
C1229      C1230   1.396       .  A
C1229      O1235   1.314       .  A
C1230      C1231   1.396       .  A
C1230      H1241   1.083       .  S
C1231      C1240   1.352   1_556  A
C1231      C1232   1.381   1_556  A
C1232      C1233   1.409   1_554  A
C1233      C1234   1.409       .  A
C1233      H1242   1.082   1_556  S
C1234      C1237   1.368       .  A
O1235      C1236   1.327       .  A
C1236      C1237   1.394       .  A
C1237      H1243   1.082       .  S
O1238      C1239   1.335       .  A
C1240      H1244   1.083       .  S
C1245      C1250   1.380       .  A
C1245      C1246   1.399       .  A
C1245      O1251   1.315       .  A
C1246      C1247   1.398       .  A
C1246      H1257   1.083       .  S
C1247      C1256   1.354       .  A
C1247      C1248   1.379       .  A
C1248      C1249   1.411       .  A
C1248      O1254   1.327       .  A
C1249      C1250   1.411       .  A
C1249      H1258   1.082       .  S
C1250      C1253   1.372       .  A
O1251      C1252   1.330       .  A
C1252      C1253   1.395       .  A
C1253      H1259   1.082       .  S
O1254      C1255   1.336       .  A
C1255      C1256   1.391       .  A
C1256      H1260   1.083       .  S
C1261      C1266   1.378       .  A
C1261      C1262   1.411       .  A
C1261      O1267   1.322       .  A
C1262      C1263   1.409       .  A
C1262      H1273   1.082       .  S
C1263      C1272   1.374       .  A
C1263      C1264   1.379       .  A
C1264      C1265   1.404       .  A
C1264      O1270   1.317       .  A
C1265      C1266   1.402       .  A
C1265      H1274   1.082       .  S
C1266      C1269   1.365       .  A
O1267      C1268   1.337       .  A
C1268      C1269   1.394       .  A
C1269      H1275   1.082       .  S
O1270      C1271   1.332       .  A
C1271      C1272   1.396       .  A
C1272      H1276   1.082       .  S
C1277      C1282   1.380       .  A
C1277      C1278   1.398       .  A
C1277      O1283   1.311       .  A
C1278      C1279   1.396       .  A
C1278      H1289   1.083       .  S
C1279      C1288   1.355       .  A
C1279      C1280   1.380       .  A
C1280      C1281   1.409       .  A
C1280      O1286   1.323       .  A
C1281      C1282   1.408       .  A
C1281      H1290   1.082       .  S
C1282      C1285   1.371       .  A
O1283      C1284   1.328       .  A
C1284      C1285   1.394       .  A
C1285      H1291   1.082       .  S
O1286      C1287   1.334       .  A
C1287      C1288   1.389       .  A
C1288      H1292   1.083       .  S
C1293      C1298   1.379       .  A
C1293      C1294   1.414       .  A
C1293      O1299   1.329       .  A
C1294      C1295   1.413   1_556  A
C1294      H1305   1.082       .  S
C1296      O1302   1.313       .  A
C1297      C1298   1.400   1_554  A
C1298      C1301   1.358       .  A
O1299      C1300   1.337       .  A
C1300      C1301   1.392       .  A
C1301      H1307   1.083       .  S
O1302      C1303   1.332       .  A
C1303      C1304   1.400       .  A
C1309      C1314   1.381       .  A
C1309      C1310   1.397       .  A
C1309      O1315   1.314       .  A
C1310      C1311   1.397       .  A
C1310      H1321   1.083       .  S
C1311      C1320   1.353       .  A
C1311      C1312   1.378       .  A
C1312      C1313   1.406       .  A
C1312      O1318   1.321       .  A
C1313      C1314   1.406       .  A
C1313      H1322   1.082       .  S
C1314      C1317   1.366       .  A
O1315      C1316   1.328       .  A
C1316      C1317   1.393       .  A
C1317      H1323   1.082       .  S
O1318      C1319   1.334       .  A
C1319      C1320   1.394       .  A
C1320      H1324   1.081       .  S
C1325      C1330   1.380       .  A
C1325      C1326   1.409   1_556  A
C1325      O1331   1.323       .  A
C1326      C1327   1.408       .  A
C1326      H1337   1.082       .  S
C1327      C1328   1.381       .  A
C1328      C1329   1.398   1_554  A
C1328      O1334   1.313       .  A
C1329      C1330   1.397       .  A
C1329      H1338   1.083       .  S
C1330      C1333   1.356       .  A
O1331      C1332   1.333       .  A
C1332      C1333   1.389       .  A
C1333      H1339   1.083       .  S
C1335      C1336   1.397       .  A
C1336      H1340   1.082       .  S
C1341      C1346   1.381       .  A
C1341      C1342   1.408       .  A
C1341      O1347   1.324       .  A
C1342      C1343   1.408       .  A
C1342      H1353   1.082       .  S
C1343      C1352   1.364       .  A
C1343      C1344   1.380       .  A
C1344      C1345   1.395       .  A
C1344      O1350   1.314       .  A
C1345      C1346   1.396       .  A
C1345      H1354   1.082       .  S
C1346      C1349   1.350       .  A
O1347      C1348   1.333       .  A
C1348      C1349   1.387       .  A
C1349      H1355   1.083       .  S
O1350      C1351   1.328       .  A
C1351      C1352   1.398       .  A
C1352      H1356   1.082       .  S
C1357      C1362   1.380       .  A
C1357      C1358   1.398       .  A
C1357      O1363   1.314       .  A
C1358      C1359   1.398       .  A
C1358      H1369   1.083       .  S
C1359      C1368   1.355       .  A
C1359      C1360   1.378       .  A
C1360      C1361   1.413       .  A
C1360      O1366   1.327       .  A
C1361      C1362   1.412       .  A
C1361      H1370   1.082       .  S
C1362      C1365   1.373       .  A
O1363      C1364   1.329       .  A
C1364      C1365   1.397       .  A
C1365      H1371   1.082       .  S
O1366      C1367   1.337       .  A
C1367      C1368   1.392       .  A
C1368      H1372   1.082       .  S
C1373      C1378   1.380       .  A
C1373      C1374   1.411       .  A
C1373      O1379   1.324       .  A
C1374      C1375   1.410       .  A
C1374      H1385   1.082       .  S
C1375      C1384   1.373       .  A
C1375      C1376   1.380       .  A
C1376      C1377   1.397       .  A
C1376      O1382   1.312       .  A
C1377      C1378   1.395       .  A
C1377      H1386   1.082       .  S
C1378      C1381   1.355       .  A
O1379      C1380   1.335       .  A
C1380      C1381   1.389       .  A
C1381      H1387   1.083       .  S
O1382      C1383   1.328       .  A
C1383      C1384   1.396       .  A
C1384      H1388   1.082       .  S
C1389      C1394   1.379       .  A
C1389      O1395   1.315       .  A
C1390      C1391   1.409       .  A
C1390      H1401   1.082       .  S
C1391      C1400   1.370       .  A
C1391      C1392   1.380       .  A
C1392      O1398   1.316       .  A
C1393      C1394   1.408       .  A
C1393      H1402   1.082       .  S
C1394      C1397   1.372       .  A
O1395      C1396   1.332       .  A
C1396      C1397   1.396       .  A
C1397      H1403   1.082       .  S
O1398      C1399   1.330       .  A
C1399      C1400   1.395       .  A
C1400      H1404   1.082       .  S
