geometry optimzed in LAMMPS
_audit_creation_date              2020-11-30 
_audit_creation_method            'lammps2cif' 
_symmetry_space_group_name_H-M    'P1' 
_symmetry_Int_Tables_number       1 
_symmetry_cell_setting            triclinic 
loop_ 
_symmetry_equiv_pos_as_xyz 
  x,y,z 
_cell_length_a                    44.07817703 
_cell_length_b                    39.660017320227716 
_cell_length_c                    30.22341319838338 
_cell_angle_alpha                 89.82098965265105 
_cell_angle_beta                  89.98888411095024 
_cell_angle_gamma                 89.90061059686951 
loop_ 
_atom_site_label 
_atom_site_type_symbol 
_atom_site_fract_x 
_atom_site_fract_y 
_atom_site_fract_z 
_atom_site_charge 
N1          N  0.15021486  0.30078076  0.41082373    -0.03300
C2          C  0.17777147  0.28542021  0.40242022    -0.00700
C3          C  0.18239009  0.25797296  0.43001631    -0.23600
C4          C  0.15559693  0.25128050  0.44944400    -0.23800
C5          C  0.13583654  0.27628176  0.43611395    -0.00800
H6          H  0.20130038  0.24051666  0.42955545     0.13000
H7          H  0.15068678  0.22942761  0.46976956     0.13000
N8          N  0.34546230  0.18741265  0.05031335    -0.03300
C9          C  0.31825603  0.20362358  0.05855411    -0.00700
C10         C  0.31249965  0.22844939  0.02707329    -0.23600
C11         C  0.33876714  0.23408413  0.00592751    -0.23800
C12         C  0.35905406  0.21070222  0.02211066    -0.00800
H13         H  0.29344399  0.24571229  0.02567616     0.13000
H14         H  0.34311599  0.25456633  0.98302216     0.13000
Zr15       Zr  0.19364881  0.27298887  0.24546517     2.17500
O16         O  0.15706267  0.31532111  0.26971859    -0.51200
O17         O  0.15096226  0.23857792  0.21816777    -0.74400
O18         O  0.17561571  0.30749159  0.18545333    -0.81200
O19         O  0.22036352  0.27044563  0.36046632    -0.82900
O20         O  0.19980113  0.29100050  0.12274755    -0.78500
O21         O  0.17722511  0.28176997  0.32249733    -0.90200
O22         O  0.16294045  0.18650568  0.19289709    -0.76100
O23         O  0.20330159  0.23593226  0.18594403    -0.85600
O24         O  0.20507087  0.21972317  0.27707806    -0.85300
O25         O  0.23544451  0.29872255  0.20549471    -0.72100
O26         O  0.23851863  0.28370193  0.28889478    -0.84200
Zr27       Zr  0.30266516  0.21599524  0.21749541     2.26400
Zr28       Zr  0.24444589  0.25961569  0.14594881     2.06300
Zr29       Zr  0.25027534  0.22959365  0.31869788     2.10000
Zr30       Zr  0.21565904  0.18273730  0.21670073     1.78800
O31         O  0.26887682  0.24047542  0.39316670    -0.93000
O32         O  0.21111446  0.15331272  0.14566100    -0.40800
O33         O  0.26106143  0.19173270  0.25893178    -0.77400
O34         O  0.25725147  0.20576282  0.17605265    -0.96100
O35         O  0.29068395  0.26933520  0.18635684    -0.89400
O36         O  0.29280785  0.25148546  0.27943094    -0.92300
C37         C  0.14401455  0.21054826  0.19881055     1.01500
C38         C  0.19269664  0.28079572  0.35857247     1.14400
C39         C  0.18024412  0.30883900  0.14367065     1.05200
O40         O  0.22128021  0.23393118  0.08118483    -0.94400
O41         O  0.28036469  0.22959168  0.10044725    -0.90200
O42         O  0.31703622  0.20290240  0.13970556    -0.83300
C43         C  0.30444766  0.21136259  0.10275815     1.11800
O44         O  0.25838483  0.33689231  0.30851425    -0.96400
Zr45       Zr  0.28118912  0.30490109  0.24827956     1.88900
O46         O  0.34762979  0.24965642  0.23585237    -0.73100
O47         O  0.26486560  0.30414071  0.09895836    -0.52300
O48         O  0.28379712  0.33860471  0.18091389    -0.97000
O49         O  0.31047758  0.35622823  0.26104223    -0.54200
O50         O  0.33400637  0.29757086  0.27080618    -0.73600
C51         C  0.35386203  0.27589525  0.25927578     0.98800
O52         O  0.33947744  0.17343590  0.19486706    -0.62400
O53         O  0.22170501  0.18386321  0.35296355    -0.57200
O54         O  0.31722299  0.18005269  0.27823795    -0.93900
O55         O  0.29451855  0.19745397  0.34175334    -0.92300
O56         O  0.18829740  0.15138132  0.27353122    -0.92700
O57         O  0.24167732  0.12900453  0.22466288    -0.91400
C58         C  0.31306060  0.17874440  0.32015857     1.17600
H59         H  0.18826692  0.21242877  0.29525544     0.33600
H60         H  0.26177696  0.18930545  0.15363077     0.44400
H61         H  0.30896735  0.25142040  0.30093999     0.37900
H62         H  0.22977460  0.32066032  0.19429915     0.34400
H63         H  0.18950451  0.15423016  0.13693672     0.26200
H64         H  0.25934064  0.29726862  0.06854507     0.32100
H65         H  0.30408968  0.33380965  0.16833641     0.38100
H66         H  0.16658968  0.15696661  0.26940350     0.32500
H67         H  0.23625303  0.17276276  0.37327554     0.31400
H68         H  0.25765817  0.22459367  0.41246666     0.33100
H69         H  0.32812164  0.35528000  0.24074294     0.32000
H70         H  0.26198318  0.13271927  0.21147435     0.36000
H71         H  0.35735080  0.17680255  0.21420788     0.28800
H72         H  0.13874521  0.31190134  0.25131027     0.33000
H73         H  0.27193308  0.33295980  0.33416550     0.35900
H74         H  0.20697395  0.19521566  0.37268960     0.28500
H75         H  0.33076186  0.15157547  0.20423998     0.41300
H76         H  0.20224148  0.22375371  0.09227735     0.31400
H77         H  0.22113101  0.16755922  0.12314159     0.39000
H78         H  0.31938900  0.35396770  0.29095256     0.30900
H79         H  0.25195278  0.32407854  0.10488590     0.30900
H80         H  0.16550082  0.33720738  0.25991884     0.31200
C81         C  0.15144416  0.33470930  0.43040553     0.03300
C82         C  0.15914990  0.33611189  0.47548347    -0.12900
C83         C  0.15770524  0.36570392  0.49991620     0.00800
C84         C  0.15054342  0.39552544  0.47764343    -0.11400
C85         C  0.14774739  0.39767319  0.43108830     0.03300
C86         C  0.14741774  0.36624604  0.40707946    -0.10800
H87         H  0.16634606  0.31309947  0.49132282     0.08900
H88         H  0.14813320  0.41805194  0.49699822     0.06400
H89         H  0.14431621  0.36633011  0.37157410     0.06300
C90         C  0.16673977  0.33733022  0.11990713     0.03300
C91         C  0.16154390  0.33634394  0.07428504    -0.12900
C92         C  0.16293746  0.36629414  0.04863570     0.00800
C93         C  0.17172859  0.39630864  0.07025765    -0.11400
C94         C  0.17430478  0.39734167  0.11629183     0.03300
C95         C  0.16923700  0.36825298  0.14094762    -0.10800
H96         H  0.15766818  0.31192833  0.05974357     0.08900
H97         H  0.17765969  0.41874905  0.05186579     0.06400
H98         H  0.17332441  0.36872005  0.17632875     0.06300
N99         N  0.14852143  0.43186636  0.41087860    -0.03300
C100        C  0.17709778  0.44496348  0.40272214    -0.00700
C101        C  0.18471337  0.46770306  0.43589097    -0.23600
C102        C  0.15837318  0.47759536  0.45446214    -0.23800
C103        C  0.13624768  0.45730991  0.43674380    -0.00800
H104        H  0.20433421  0.98402303  0.43658644     0.13000
H105        H  0.15420250  0.99927664  0.47497282     0.13000
N106        N  0.34834597  0.05574703  0.05330801    -0.03300
C107        C  0.32010672  0.04167503  0.06176050    -0.00700
C108        C  0.31541781  0.51415470  0.03402716    -0.23600
C109        C  0.34253293  0.50557366  0.01704612    -0.23800
C110        C  0.36196837  0.03021104  0.02880902    -0.00800
H111        H  0.29583764  0.49768683  0.03317626     0.13000
H112        H  0.34699219  0.48355038  0.99695967     0.13000
Zr113      Zr  0.30194874  0.02464118  0.21877647     2.17500
O114        O  0.33728366  0.06903183  0.19752275    -0.51200
O115        O  0.34572136  0.99045839  0.24296124    -0.74400
O116        O  0.31681419  0.05804505  0.28159080    -0.81200
O117        O  0.27746227  0.52360524  0.10255011    -0.82900
O118        O  0.28952058  0.04335978  0.34252394    -0.78500
O119        O  0.31981330  0.03625349  0.14245553    -0.90200
O120        O  0.33511564  0.43684024  0.26592496    -0.76100
O121        O  0.29246509  0.98602660  0.27717917    -0.85600
O122        O  0.29161040  0.47187453  0.18558185    -0.85300
O123        O  0.25845875  0.04742206  0.25807528    -0.72100
O124        O  0.25755089  0.03530444  0.17438581    -0.84200
Zr125      Zr  0.19372007  0.46344005  0.24325610     2.26400
Zr126      Zr  0.24940163  0.00693102  0.31638279     2.06300
Zr127      Zr  0.24690201  0.48196450  0.14273760     2.10000
Zr128      Zr  0.28165087  0.43347193  0.24499214     1.78800
O129        O  0.22211294  0.49995300  0.07448198    -0.93000
O130        O  0.28788641  0.40486218  0.31652051    -0.40800
O131        O  0.23682366  0.44279040  0.20173754    -0.77400
O132        O  0.23887743  0.45382056  0.28560706    -0.96100
O133        O  0.20378067  0.01636812  0.27459192    -0.89400
O134        O  0.20295465  0.50028452  0.18203895    -0.92300
C135        C  0.35328669  0.46163152  0.26045110     1.01500
C136        C  0.30490482  0.03583522  0.10579410     1.14400
C137        C  0.30984949  0.06077093  0.32261140     1.05200
O138        O  0.27383602  0.98315604  0.38172264    -0.94400
O139        O  0.21435413  0.97354481  0.35989353    -0.90200
O140        O  0.17812977  0.44782259  0.32055783    -0.83300
C141        C  0.19023109  0.45548443  0.35819425     1.11800
O142        O  0.23602489  0.08576866  0.15371459    -0.96400
Zr143      Zr  0.21341242  0.05356405  0.21397127     1.88900
O144        O  0.14836185  0.49737083  0.22643658    -0.73100
O145        O  0.22313039  0.04870111  0.36128008    -0.52300
O146        O  0.20887855  0.08689827  0.28112162    -0.97000
O147        O  0.18493728  0.10544932  0.20042613    -0.54200
O148        O  0.16094129  0.04613068  0.19072231    -0.73600
C149        C  0.14172917  0.02371435  0.20189157     0.98800
O150        O  0.15923856  0.41748862  0.26174481    -0.62400
O151        O  0.27652128  0.44077432  0.10145113    -0.57200
O152        O  0.18175950  0.42882164  0.18036491    -0.93900
O153        O  0.20788238  0.44354551  0.11833022    -0.92300
O154        O  0.30765798  0.40183705  0.18726345    -0.92700
O155        O  0.25438652  0.38049141  0.23897723    -0.91400
C156        C  0.18823257  0.42582293  0.13923534     1.17600
H157        H  0.30862384  0.46511716  0.16748078     0.33600
H158        H  0.23472696  0.43670804  0.30741457     0.44400
H159        H  0.18689328  0.49977689  0.16040872     0.37900
H160        H  0.26298129  0.06939881  0.26992871     0.34400
H161        H  0.30956759  0.40639061  0.32461429     0.26200
H162        H  0.22528271  0.04036610  0.39203365     0.32100
H163        H  0.18854976  0.08137255  0.29304351     0.38100
H164        H  0.32938463  0.40785906  0.18966651     0.32500
H165        H  0.26901549  0.41865916  0.11205727     0.31400
H166        H  0.23316977  0.48826757  0.05047209     0.33100
H167        H  0.16709699  0.10466067  0.22027313     0.32000
H168        H  0.23404675  0.38511197  0.25155351     0.36000
H169        H  0.14208304  0.41930799  0.24071409     0.28800
H170        H  0.35555045  0.06538466  0.21602786     0.33000
H171        H  0.22283866  0.08131842  0.12785686     0.35900
H172        H  0.26898942  0.44248526  0.07067871     0.28500
H173        H  0.17017918  0.39670037  0.25318987     0.41300
H174        H  0.29460282  0.97717236  0.37190135     0.31400
H175        H  0.27778735  0.41924244  0.33878185     0.39000
H176        H  0.17624336  0.10319706  0.17035017     0.30900
H177        H  0.23600707  0.06910992  0.36007131     0.30900
H178        H  0.32814789  0.09019213  0.20858149     0.31200
C179        C  0.32285371  0.08954213  0.34603766     0.03300
C180        C  0.32547573  0.11931270  0.32196284    -0.12900
C181        C  0.32671412  0.15009291  0.34355695     0.00800
C182        C  0.33243725  0.15089148  0.38898946    -0.11400
C183        C  0.33259832  0.12069762  0.41423699     0.03300
C184        C  0.32568162  0.09024223  0.39210242    -0.10800
H185        H  0.32082870  0.11898344  0.28672018     0.08900
H186        H  0.33560156  0.17537102  0.40368955     0.06400
H187        H  0.32122160  0.06717607  0.41001936     0.06300
C188        C  0.34823522  0.08977374  0.03285090     0.03300
C189        C  0.34567001  0.09166180  0.48609674    -0.12900
C190        C  0.33806185  0.12108265  0.46328614     0.00800
C191        C  0.33570215  0.15077985  0.48741255    -0.11400
C192        C  0.34336256  0.15278211  0.03247145     0.03300
C193        C  0.34881836  0.12161011  0.05623773    -0.10800
H194        H  0.34807830  0.06874339  0.46756798     0.08900
H195        H  0.32742235  0.17320353  0.47142611     0.06400
H196        H  0.35313679  0.12207219  0.09146578     0.06300
N197        N  0.09856101  0.18208285  0.15809739    -0.03300
C198        C  0.07006066  0.19569817  0.15004112    -0.00700
C199        C  0.06454624  0.22274881  0.17784603    -0.23600
C200        C  0.09138207  0.23159594  0.19551276    -0.23800
C201        C  0.11220188  0.20791100  0.18184914    -0.00800
H202        H  0.04475694  0.23899847  0.17815954     0.13000
H203        H  0.09540158  0.25367299  0.21565729     0.13000
N204        N  0.39822480  0.30432326  0.30125242    -0.03300
C205        C  0.42666711  0.29076756  0.30937917    -0.00700
C206        C  0.43384919  0.26722082  0.27695096    -0.23600
C207        C  0.40745077  0.25801305  0.25821984    -0.23800
C208        C  0.38565111  0.27912287  0.27532928    -0.00800
H209        H  0.45440983  0.25238204  0.27403972     0.13000
H210        H  0.40438392  0.23744111  0.23518718     0.13000
Zr211      Zr  0.05183322  0.21192895  0.49208627     2.17500
O212        O  0.08775520  0.16751952  0.01347267    -0.51200
O213        O  0.09552760  0.24589574  0.46835783    -0.74400
O214        O  0.06752070  0.17947129  0.42901298    -0.81200
O215        O  0.02705647  0.21171143  0.10869343    -0.82900
O216        O  0.04042469  0.19430577  0.36798163    -0.78500
O217        O  0.06958242  0.20053387  0.06942840    -0.90200
O218        O  0.08536282  0.29919649  0.44564621    -0.76100
O219        O  0.04255860  0.25081176  0.43395364    -0.85600
O220        O  0.04210712  0.26451216  0.52629488    -0.85300
O221        O  0.50848347  0.18924038  0.45287409    -0.72100
O222        O  0.00743147  0.20091643  0.03678930    -0.84200
Zr223      Zr  0.44416183  0.27374689  0.46869441     2.26400
Zr224      Zr  0.49950237  0.22981061  0.39454183     2.06300
Zr225      Zr  0.99710182  0.25427559  0.06895714     2.10000
Zr226      Zr  0.03215123  0.30344217  0.46744237     1.78800
O227        O  0.97178780  0.23653616  0.13681116    -0.93000
O228        O  0.03761877  0.33266043  0.39624613    -0.40800
O229        O  0.48738665  0.29390886  0.51020153    -0.77400
O230        O  0.48917811  0.28355505  0.42617838    -0.96100
O231        O  0.45378185  0.22066587  0.43604792    -0.89400
O232        O  0.45347056  0.23622613  0.02949123    -0.92300
C233        C  0.10357209  0.27436643  0.45110543     1.01500
C234        C  0.05467241  0.20108442  0.10609089     1.14400
C235        C  0.06077540  0.17694205  0.38795304     1.05200
O236        O  0.52509091  0.25386104  0.33043906    -0.94400
O237        O  0.46431766  0.26293762  0.35080902    -0.90200
O238        O  0.42806526  0.28874381  0.39147167    -0.83300
C239        C  0.44032326  0.28132170  0.35384889     1.11800
O240        O  0.48440076  0.15161347  0.05901828    -0.96400
Zr241      Zr  0.46320280  0.18307321  0.99688657     1.88900
O242        O  0.39871272  0.24039440  0.98675599    -0.73100
O243        O  0.47470021  0.18776888  0.34849244    -0.52300
O244        O  0.45860670  0.15019390  0.42925279    -0.97000
O245        O  0.43433313  0.13141291  0.00991014    -0.54200
O246        O  0.41038131  0.19059773  0.01895109    -0.73600
C247        C  0.39133078  0.21334801  0.00806159     0.98800
O248        O  0.40929877  0.31951119  0.45032695    -0.62400
O249        O  0.02697863  0.29426801  0.11165107    -0.57200
O250        O  0.43271689  0.30850976  0.03132446    -0.93900
O251        O  0.45762246  0.29188391  0.09357607    -0.92300
O252        O  0.05925944  0.33471095  0.52441699    -0.92700
O253        O  0.00626941  0.35706659  0.47719238    -0.91400
C254        C  0.43874740  0.31065749  0.07269926     1.17600
H255        H  0.05881113  0.27134839  0.04458256     0.33600
H256        H  0.48481173  0.30073795  0.40452701     0.44400
H257        H  0.43734148  0.23630154  0.05102862     0.37900
H258        H  0.51307311  0.16727358  0.44098345     0.34400
H259        H  0.05937021  0.33169681  0.38833206     0.26200
H260        H  0.48009431  0.19427637  0.31783512     0.32100
H261        H  0.43875664  0.15485313  0.91780330     0.38100
H262        H  0.08097866  0.32890206  0.52084810     0.32500
H263        H  0.02465524  0.31589430  0.09554116     0.31400
H264        H  0.98261308  0.24836473  0.16089494     0.33100
H265        H  0.41660642  0.13237537  0.98986042     0.32000
H266        H  0.48407645  0.35188049  0.46407907     0.36000
H267        H  0.39217528  0.31745759  0.47138817     0.28800
H268        H  0.10562835  0.17060822  0.99400289     0.33000
H269        H  0.47116140  0.15734625  0.08440497     0.35900
H270        H  0.01538412  0.29756002  0.13935028     0.28500
H271        H  0.41997682  0.34041642  0.45892744     0.41300
H272        H  0.04460217  0.26277818  0.34099373     0.31400
H273        H  0.02799460  0.31811731  0.37378435     0.39000
H274        H  0.42547124  0.13369027  0.03988516     0.30900
H275        H  0.48609104  0.16660007  0.35378802     0.30900
H276        H  0.07821904  0.14632251  0.00347053     0.31200
C277        C  0.07621346  0.08754562  0.36661442     0.03300
C278        C  0.07537458  0.11822074  0.38845527    -0.12900
C279        C  0.07381870  0.14818158  0.36465659     0.00800
C280        C  0.07727587  0.14771116  0.31873874    -0.11400
C281        C  0.08374764  0.11718245  0.29647023     0.03300
C282        C  0.08247819  0.08682093  0.32137189    -0.10800
H283        H  0.07029663  0.11852705  0.42356955     0.08900
H284        H  0.07351621  0.17104105  0.30105566     0.06400
H285        H  0.08535601  0.06230304  0.30666677     0.06300
C286        C  0.09950364  0.14802093  0.17831446     0.03300
C287        C  0.09937959  0.11636832  0.15458877    -0.12900
C288        C  0.09504575  0.08507195  0.17840750     0.00800
C289        C  0.08705641  0.08736448  0.22326733    -0.11400
C290        C  0.08956383  0.11694545  0.24753788     0.03300
C291        C  0.09720145  0.14640734  0.22483293    -0.10800
H292        H  0.10232646  0.11614153  0.11905458     0.08900
H293        H  0.07877029  0.06493100  0.23906535     0.06400
H294        H  0.09998793  0.16924518  0.24340718     0.06300
N295        N  0.09632709  0.05063594  0.15985258    -0.03300
C296        C  0.06878002  0.03540454  0.15164272    -0.00700
C297        C  0.06262662  0.50893312  0.18280360    -0.23600
C298        C  0.08882946  0.50280469  0.20389250    -0.23800
C299        C  0.10963574  0.02660618  0.18727973    -0.00800
H300        H  0.04345595  0.49189753  0.18401909     0.13000
H301        H  0.09301569  0.48213483  0.22659322     0.13000
N302        N  0.40026299  0.43552497  0.30130556    -0.03300
C303        C  0.42767060  0.45117450  0.30985131    -0.00700
C304        C  0.43179788  0.47904547  0.28290334    -0.23600
C305        C  0.40508980  0.48521473  0.26291001    -0.23800
C306        C  0.38564976  0.45980324  0.27566322    -0.00800
H307        H  0.45199814  0.99444068  0.28113707     0.13000
H308        H  0.40128068  0.00623279  0.24127102     0.13000
Zr309      Zr  0.44384014  0.46429380  0.46636694     2.17500
O310        O  0.40569940  0.42368515  0.44269511    -0.51200
O311        O  0.40206245  0.49939813  0.99486023    -0.74400
O312        O  0.42756605  0.42920297  0.02717706    -0.81200
O313        O  0.47093192  0.96445068  0.35092016    -0.82900
O314        O  0.45006898  0.44790774  0.08993775    -0.78500
O315        O  0.42791728  0.45383895  0.38965854    -0.90200
O316        O  0.41284377  0.05116906  0.01862432    -0.76100
O317        O  0.45396585  0.50148924  0.02606850    -0.85600
O318        O  0.45495303  0.01717173  0.43294647    -0.85300
O319        O  0.48563320  0.43869946  0.50676601    -0.72100
O320        O  0.48869458  0.45317620  0.42304080    -0.84200
Zr321      Zr  0.05281238  0.02178522  0.49267727     2.26400
Zr322      Zr  0.99438785  0.47820476  0.06556791     2.06300
Zr323      Zr  0.50020874  0.00669793  0.39137694     2.10000
Zr324      Zr  0.46531565  0.05485519  0.99409133     1.78800
O325        O  0.51992206  0.99436358  0.31780810    -0.93000
O326        O  0.46110156  0.08310716  0.06601836    -0.40800
O327        O  0.51064704  0.04492366  0.45082964    -0.77400
O328        O  0.00779152  0.03303279  0.03443721    -0.96100
O329        O  0.04142247  0.46903324  0.52535528    -0.89400
O330        O  0.04285710  0.98600767  0.43106440    -0.92300
C331        C  0.39378374  0.02750039  0.01185757     1.01500
C332        C  0.44315111  0.45504677  0.35342470     1.14400
C333        C  0.43169794  0.42865177  0.06908677     1.05200
O334        O  0.97040989  0.50154677  0.13138792    -0.94400
O335        O  0.03000796  0.50929775  0.11013714    -0.90200
O336        O  0.06811996  0.03508941  0.07039709    -0.83300
C337        C  0.05500854  0.02791579  0.10743505     1.11800
O338        O  0.00892644  0.39960344  0.40541427    -0.96400
Zr339      Zr  0.03193229  0.43274557  0.46423769     1.88900
O340        O  0.09750312  0.98770714  0.47344408    -0.73100
O341        O  0.01651415  0.43380523  0.11129725    -0.52300
O342        O  0.03606348  0.40011077  0.53238776    -0.97000
O343        O  0.06078538  0.38116136  0.45079454    -0.54200
O344        O  0.08450681  0.43968721  0.44095982    -0.73600
C345        C  0.10438340  0.46132584  0.45217405     0.98800
O346        O  0.09003763  0.06516996  0.01380995    -0.62400
O347        O  0.47181457  0.05178852  0.35517713    -0.57200
O348        O  0.06633403  0.05795914  0.43189830    -0.93900
O349        O  0.04454634  0.03969557  0.36824800    -0.92300
O350        O  0.43815526  0.08604059  0.43617899    -0.92700
O351        O  0.49078977  0.10897272  0.98751776    -0.91400
C352        C  0.06255732  0.05890288  0.38991454     1.17600
H353        H  0.43821983  0.02444406  0.41459101     0.33600
H354        H  0.01207934  0.04968900  0.05661316     0.44400
H355        H  0.05897063  0.98583978  0.40946068     0.37900
H356        H  0.48104448  0.41645713  0.01789482     0.34400
H357        H  0.43931240  0.08417884  0.07365030     0.26200
H358        H  0.03750377  0.44135645  0.11732520     0.32100
H359        H  0.05701156  0.40404707  0.54298869     0.38100
H360        H  0.41554732  0.07813239  0.94050093     0.32500
H361        H  0.48675562  0.06311723  0.33570768     0.31400
H362        H  0.50868751  0.00958314  0.29758053     0.33100
H363        H  0.07856490  0.38182845  0.47082421     0.32000
H364        H  0.51184980  0.10472310  0.99755804     0.36000
H365        H  0.10748225  0.06219915  0.99351531     0.28800
H366        H  0.38775943  0.42789830  0.46165909     0.33000
H367        H  0.02024539  0.40599037  0.37834318     0.35900
H368        H  0.45787469  0.04016040  0.33464285     0.28500
H369        H  0.08079693  0.08696400  0.00521299     0.41300
H370        H  0.45589758  0.50953417  0.12824502     0.31400
H371        H  0.46930813  0.06718263  0.08822949     0.39000
H372        H  0.06950643  0.38353462  0.42077398     0.30900
H373        H  0.00600954  0.43581936  0.14013964     0.30900
H374        H  0.41346405  0.40137384  0.45212347     0.31200
C375        C  0.40188733  0.40147103  0.28214767     0.03300
C376        C  0.39747548  0.36997465  0.30542420    -0.12900
C377        C  0.39775267  0.33857234  0.28130362     0.00800
C378        C  0.40074146  0.34074237  0.23480706    -0.11400
C379        C  0.40842364  0.37044399  0.21274806     0.03300
C380        C  0.41015574  0.39993182  0.23734368    -0.10800
H381        H  0.39407017  0.36989686  0.34087548     0.08900
H382        H  0.39813268  0.31828601  0.21540251     0.06400
H383        H  0.41780649  0.42285775  0.22182933     0.05900
C384        C  0.41912742  0.39976496  0.09309776     0.03300
C385        C  0.42154525  0.36892530  0.07177911    -0.12900
C386        C  0.42552341  0.33943949  0.09603575     0.00800
C387        C  0.42260480  0.34020081  0.14205593    -0.11400
C388        C  0.41448311  0.37040608  0.16392905     0.03300
C389        C  0.41379246  0.40055994  0.13866206    -0.10800
H390        H  0.42589246  0.36858185  0.03646415     0.08900
H391        H  0.42769828  0.31738655  0.16025129     0.06400
H392        H  0.41004948  0.42492987  0.15345531     0.06300
N393        N  0.15016118  0.30116017  0.91065291    -0.03300
C394        C  0.17791494  0.28607729  0.90248680    -0.00700
C395        C  0.18250924  0.25855121  0.92990688    -0.23600
C396        C  0.15566802  0.25165371  0.94915594    -0.23800
C397        C  0.13578683  0.27652266  0.93579440    -0.00800
H398        H  0.20153630  0.24125298  0.92951849     0.13000
H399        H  0.15083778  0.22980037  0.96951367     0.13000
N400        N  0.34591865  0.18770692  0.55040540    -0.03300
C401        C  0.31861086  0.20354342  0.55898009    -0.00700
C402        C  0.31262780  0.22849163  0.52773162    -0.23600
C403        C  0.33881643  0.23452748  0.50651439    -0.23800
C404        C  0.35930572  0.21128147  0.52244353    -0.00800
H405        H  0.29340088  0.24552141  0.52649503     0.13000
H406        H  0.34292961  0.25505584  0.48358783     0.13000
Zr407      Zr  0.19428047  0.27291083  0.74610656     2.17500
O408        O  0.15917402  0.31653795  0.77080872    -0.51200
O409        O  0.15194270  0.23792978  0.71905458    -0.74400
O410        O  0.17562561  0.30670556  0.68556700    -0.81200
O411        O  0.22103407  0.27200541  0.86062891    -0.82900
O412        O  0.20074719  0.29113107  0.62318674    -0.78500
O413        O  0.17755298  0.28180116  0.82277693    -0.90200
O414        O  0.16371745  0.18564194  0.69421595    -0.76100
O415        O  0.20387700  0.23548298  0.68715207    -0.85600
O416        O  0.20565074  0.21994004  0.77876370    -0.85300
O417        O  0.23590124  0.29838292  0.70574527    -0.72100
O418        O  0.23910993  0.28382413  0.78937958    -0.84200
Zr419      Zr  0.30305281  0.21593532  0.71818533     2.26400
Zr420      Zr  0.24478555  0.25897319  0.64655186     2.06300
Zr421      Zr  0.25096259  0.23005969  0.82006202     2.10000
Zr422      Zr  0.21626296  0.18259472  0.71876493     1.78800
O423        O  0.26814230  0.24054185  0.89542133    -0.93000
O424        O  0.20872369  0.15463576  0.64776976    -0.40800
O425        O  0.26172525  0.19191466  0.76048682    -0.77400
O426        O  0.25756619  0.20523124  0.67700004    -0.96100
O427        O  0.29106190  0.26908101  0.68667860    -0.89400
O428        O  0.29336709  0.25167474  0.78006539    -0.92300
C429        C  0.14492038  0.20990034  0.69972717     1.01500
C430        C  0.19310425  0.28161665  0.85876401     1.14400
C431        C  0.18073468  0.30846314  0.64389713     1.05200
O432        O  0.22108772  0.23352198  0.58196452    -0.94400
O433        O  0.28044628  0.22870002  0.60102291    -0.90200
O434        O  0.31749749  0.20274336  0.64031912    -0.83300
C435        C  0.30475845  0.21089473  0.60333092     1.11800
O436        O  0.25918591  0.33727749  0.80854166    -0.96400
Zr437      Zr  0.28161734  0.30486354  0.74842528     1.88900
O438        O  0.34789074  0.24971864  0.73645629    -0.73100
O439        O  0.26503063  0.30352175  0.59946864    -0.52300
O440        O  0.28418618  0.33813135  0.68065436    -0.97000
O441        O  0.31053015  0.35630316  0.76171402    -0.54200
O442        O  0.33446246  0.29795794  0.77070470    -0.73600
C443        C  0.35423772  0.27616751  0.75935566     0.98800
O444        O  0.34093956  0.17406371  0.69715373    -0.62400
O445        O  0.22347652  0.18337130  0.85399000    -0.57200
O446        O  0.31664576  0.17959283  0.77875967    -0.93900
O447        O  0.29606168  0.19907267  0.84266759    -0.92300
O448        O  0.18944320  0.15143553  0.77627693    -0.92700
O449        O  0.24276525  0.12892053  0.72405187    -0.91400
C450        C  0.31343047  0.17914929  0.82085428     1.17600
H451        H  0.18892537  0.21276125  0.79719472     0.33600
H452        H  0.26173710  0.18880857  0.65441315     0.44400
H453        H  0.30963101  0.25185320  0.80140692     0.37900
H454        H  0.23014567  0.32023835  0.69438022     0.34400
H455        H  0.20245476  0.17278404  0.62715587     0.26200
H456        H  0.28712877  0.29911180  0.59825903     0.32100
H457        H  0.30486195  0.33413205  0.66896661     0.38100
H458        H  0.16777328  0.15750022  0.77295179     0.32500
H459        H  0.23918087  0.17016480  0.86983527     0.31400
H460        H  0.25900680  0.22236473  0.91354499     0.33100
H461        H  0.32815192  0.35567443  0.74136002     0.32000
H462        H  0.26289384  0.13310337  0.71052962     0.36000
H463        H  0.35781054  0.17661277  0.71852395     0.28800
H464        H  0.14002010  0.31238978  0.75462026     0.33000
H465        H  0.27162814  0.33157246  0.83482589     0.35900
H466        H  0.21119393  0.19382468  0.87770194     0.28500
H467        H  0.33172628  0.15195162  0.70420289     0.41300
H468        H  0.20017474  0.22795907  0.59144799     0.31400
H469        H  0.22904138  0.14781866  0.63721872     0.39000
H470        H  0.31948856  0.35386089  0.79157191     0.30900
H471        H  0.25767477  0.29787709  0.56943168     0.30900
H472        H  0.16716936  0.33787617  0.75843869     0.31200
C473        C  0.15101414  0.33513444  0.93016898     0.03300
C474        C  0.15829748  0.33656611  0.97537752    -0.12900
C475        C  0.15720958  0.36622868  0.99967190     0.00800
C476        C  0.15064395  0.39612144  0.97714341    -0.11400
C477        C  0.14759262  0.39813218  0.93061609     0.03300
C478        C  0.14716418  0.36665153  0.90670596    -0.10800
H479        H  0.16513582  0.31349813  0.99135416     0.08900
H480        H  0.14867570  0.41880843  0.99624099     0.06400
H481        H  0.14412788  0.36668035  0.87118543     0.06300
C482        C  0.16733956  0.33698994  0.62010799     0.03300
C483        C  0.16216953  0.33594068  0.57447814    -0.12900
C484        C  0.16363896  0.36583092  0.54877740     0.00800
C485        C  0.17258653  0.39587102  0.57021694    -0.11400
C486        C  0.17531572  0.39698429  0.61623691     0.03300
C487        C  0.17015706  0.36794140  0.64101298    -0.10800
H488        H  0.15820481  0.31154046  0.55990876     0.08900
H489        H  0.17841902  0.41826699  0.55163630     0.06400
H490        H  0.17432449  0.36841194  0.67637299     0.06300
N491        N  0.14804822  0.43230473  0.91035167    -0.03300
C492        C  0.17650170  0.44576562  0.90218187    -0.00700
C493        C  0.18367339  0.46915508  0.93476656    -0.23600
C494        C  0.15723831  0.47855334  0.95338557    -0.23800
C495        C  0.13542454  0.45765170  0.93609960    -0.00800
H496        H  0.20493872  0.98389323  0.93732836     0.13000
H497        H  0.15497881  0.99922012  0.97634771     0.13000
N498        N  0.34827304  0.05624295  0.55300902    -0.03300
C499        C  0.31976796  0.04279157  0.56131432    -0.00700
C500        C  0.31446433  0.51395032  0.53422669    -0.23600
C501        C  0.34115894  0.50533973  0.51579563    -0.23800
C502        C  0.36167281  0.03043946  0.52868482    -0.00800
H503        H  0.29477585  0.49762889  0.53426997     0.13000
H504        H  0.34513183  0.48334422  0.49544918     0.13000
Zr505      Zr  0.30184832  0.02545042  0.71867074     2.17500
O506        O  0.33897106  0.06847768  0.69882302    -0.51200
O507        O  0.34544891  0.99112781  0.74311717    -0.74400
O508        O  0.31662456  0.05917292  0.78097931    -0.81200
O509        O  0.27708003  0.52541524  0.60360892    -0.82900
O510        O  0.28962835  0.04406303  0.84194446    -0.78500
O511        O  0.31935158  0.03765162  0.64218474    -0.90200
O512        O  0.33556941  0.43744668  0.76614742    -0.76100
O513        O  0.29193330  0.98722963  0.77747732    -0.85600
O514        O  0.29197776  0.47224975  0.68541800    -0.85300
O515        O  0.25833412  0.04862409  0.75774194    -0.72100
O516        O  0.25762643  0.03607992  0.67395676    -0.84200
Zr517      Zr  0.19411740  0.46351843  0.74302612     2.26400
Zr518      Zr  0.24880276  0.00843845  0.81627401     2.06300
Zr519      Zr  0.24716906  0.48262817  0.64282720     2.10000
Zr520      Zr  0.28218127  0.43365522  0.74471253     1.78800
O521        O  0.22210660  0.50084970  0.57497728    -0.93000
O522        O  0.28830669  0.40491966  0.81617935    -0.40800
O523        O  0.23731505  0.44307472  0.70148145    -0.77400
O524        O  0.23925650  0.45369035  0.78547765    -0.96100
O525        O  0.20336803  0.01729356  0.77396659    -0.89400
O526        O  0.20319863  0.50093241  0.68235249    -0.92300
C527        C  0.35374357  0.46228732  0.76097464     1.01500
C528        C  0.30455841  0.03682416  0.60541938     1.14400
C529        C  0.30994155  0.06151644  0.82208847     1.05200
O530        O  0.27226595  0.98767100  0.88406392    -0.94400
O531        O  0.21405513  0.97478075  0.85991906    -0.90200
O532        O  0.17798443  0.44793791  0.82001515    -0.83300
C533        C  0.19006461  0.45552172  0.85766846     1.11800
O534        O  0.23608401  0.08505594  0.65205193    -0.96400
Zr535      Zr  0.21337220  0.05428959  0.71337287     1.88900
O536        O  0.14879262  0.49712780  0.72563473    -0.73100
O537        O  0.22159835  0.05032934  0.85983125    -0.52300
O538        O  0.20904625  0.08747893  0.78063874    -0.97000
O539        O  0.18503263  0.10651361  0.70166550    -0.54200
O540        O  0.16106046  0.04689965  0.68951470    -0.73600
C541        C  0.14185323  0.02451257  0.70087754     0.98800
O542        O  0.15857813  0.41841694  0.76096582    -0.62400
O543        O  0.27730754  0.44291865  0.59979387    -0.57200
O544        O  0.18266122  0.42857130  0.68024957    -0.93900
O545        O  0.20861964  0.44357609  0.61821819    -0.92300
O546        O  0.30931752  0.40204627  0.68797967    -0.92700
O547        O  0.25528365  0.38052276  0.73722655    -0.91400
C548        C  0.18913291  0.42561129  0.63912161     1.17600
H549        H  0.30894148  0.46556388  0.66720284     0.33600
H550        H  0.23506411  0.43650585  0.80721181     0.44400
H551        H  0.18705501  0.50081982  0.66082801     0.37900
H552        H  0.26289239  0.07064322  0.76943376     0.34400
H553        H  0.31001819  0.40623298  0.82417567     0.26200
H554        H  0.22036746  0.04043966  0.88989837     0.32100
H555        H  0.18875775  0.08192130  0.79269033     0.38100
H556        H  0.33062529  0.40987298  0.68909350     0.32500
H557        H  0.27325653  0.42073077  0.61367900     0.31400
H558        H  0.23260802  0.48860915  0.55091175     0.33100
H559        H  0.16694646  0.10517989  0.72102377     0.32000
H560        H  0.23438327  0.38518048  0.74763133     0.36000
H561        H  0.14149586  0.42092508  0.73992655     0.28800
H562        H  0.35660875  0.06454520  0.71850088     0.33000
H563        H  0.22315145  0.07964953  0.62623534     0.35900
H564        H  0.26706974  0.44171889  0.57070448     0.28500
H565        H  0.16896862  0.39733678  0.75219142     0.41300
H566        H  0.29287255  0.98034060  0.87513318     0.31400
H567        H  0.27838046  0.41940357  0.83848701     0.39000
H568        H  0.17671481  0.10513052  0.67128196     0.30900
H569        H  0.23584242  0.06944624  0.86292202     0.30900
H570        H  0.33012715  0.09012871  0.70871086     0.31200
C571        C  0.32328408  0.08983661  0.84595861     0.03300
C572        C  0.32656115  0.11972436  0.82231487    -0.12900
C573        C  0.32685720  0.15038303  0.84435405     0.00800
C574        C  0.33163515  0.15089070  0.88998437    -0.11400
C575        C  0.33164394  0.12051740  0.91481462     0.03300
C576        C  0.32534060  0.09019929  0.89209659    -0.10800
H577        H  0.32288058  0.11954190  0.78684084     0.08900
H578        H  0.33430358  0.17529487  0.90508325     0.06400
H579        H  0.32064556  0.06700481  0.90959360     0.06300
C580        C  0.34876390  0.09024178  0.53254295     0.03300
C581        C  0.34440771  0.09113323  0.98653717    -0.12900
C582        C  0.33664592  0.12059148  0.96390640     0.00800
C583        C  0.33416592  0.15020923  0.98813912    -0.11400
C584        C  0.34413770  0.15320426  0.53214826     0.03300
C585        C  0.34893345  0.12199715  0.55603502    -0.10800
H586        H  0.34656579  0.06817159  0.96803069     0.08900
H587        H  0.32545503  0.17255155  0.97244488     0.06400
H588        H  0.35247688  0.12237663  0.59145251     0.06300
N589        N  0.09937282  0.18256101  0.65767911    -0.03300
C590        C  0.07137456  0.19711604  0.64864228    -0.00700
C591        C  0.06641141  0.22497172  0.67516101    -0.23600
C592        C  0.09309686  0.23279238  0.69390808    -0.23800
C593        C  0.11332314  0.20800123  0.68178443    -0.00800
H594        H  0.04716916  0.24198250  0.67430094     0.13000
H595        H  0.09745062  0.25498971  0.71367236     0.13000
N596        N  0.39872839  0.30458985  0.80092414    -0.03300
C597        C  0.42714234  0.29090746  0.80894390    -0.00700
C598        C  0.43424431  0.26746419  0.77633321    -0.23600
C599        C  0.40780923  0.25841685  0.75757710    -0.23800
C600        C  0.38608162  0.27946510  0.77498622    -0.00800
H601        H  0.45473645  0.25252173  0.77334326     0.13000
H602        H  0.40464597  0.23792151  0.73444911     0.13000
Zr603      Zr  0.05196866  0.21186147  0.99292434     2.17500
O604        O  0.08584116  0.16581101  0.51211534    -0.51200
O605        O  0.09552368  0.24612064  0.96863379    -0.74400
O606        O  0.06768063  0.17883622  0.93037827    -0.81200
O607        O  0.02791373  0.21138906  0.60755506    -0.82900
O608        O  0.04157732  0.19465507  0.86887653    -0.78500
O609        O  0.07048040  0.20108934  0.56803209    -0.90200
O610        O  0.08521074  0.29924590  0.94542901    -0.76100
O611        O  0.04245125  0.25020441  0.93418331    -0.85600
O612        O  0.04189404  0.26460380  0.02640681    -0.85300
O613        O  0.50850617  0.18890619  0.95300947    -0.72100
O614        O  0.00741864  0.20097581  0.53606138    -0.84200
Zr615      Zr  0.44412227  0.27346843  0.96858004     2.26400
Zr616      Zr  0.49947743  0.22931380  0.89442385     2.06300
Zr617      Zr  0.99737804  0.25406171  0.56884968     2.10000
Zr618      Zr  0.03194544  0.30305903  0.96693178     1.78800
O619        O  0.97300995  0.23528837  0.63692579    -0.93000
O620        O  0.03780423  0.33231179  0.89584629    -0.40800
O621        O  0.48724195  0.29416229  0.00992526    -0.77400
O622        O  0.48916939  0.28310743  0.92607018    -0.96100
O623        O  0.45375065  0.22027364  0.93615115    -0.89400
O624        O  0.45333911  0.23633922  0.52937155    -0.92300
C625        C  0.10350863  0.27452891  0.95105258     1.01500
C626        C  0.05570362  0.20139607  0.60479081     1.14400
C627        C  0.06155959  0.17689146  0.88904345     1.05200
O628        O  0.52486871  0.25249733  0.82953905    -0.94400
O629        O  0.46470584  0.26275772  0.85030469    -0.90200
O630        O  0.42832311  0.28831212  0.89105393    -0.83300
C631        C  0.44069493  0.28112245  0.85339909     1.11800
O632        O  0.48438141  0.15093379  0.55780328    -0.96400
Zr633      Zr  0.46317063  0.18329603  0.49653617     1.88900
O634        O  0.39865706  0.24056117  0.48577964    -0.73100
O635        O  0.47435728  0.18734256  0.84856106    -0.52300
O636        O  0.45929682  0.14992496  0.92944493    -0.97000
O637        O  0.43402671  0.13172742  0.50830511    -0.54200
O638        O  0.41056180  0.19125260  0.51909082    -0.73600
C639        C  0.39142906  0.21379850  0.50777828     0.98800
O640        O  0.40949893  0.31937780  0.94974562    -0.62400
O641        O  0.02680747  0.29475254  0.61114721    -0.57200
O642        O  0.43274509  0.30843652  0.53177956    -0.93900
O643        O  0.45901319  0.29347478  0.59360329    -0.92300
O644        O  0.05836903  0.33481105  0.02403090    -0.92700
O645        O  0.00498483  0.35636406  0.97239366    -0.91400
C646        C  0.43938110  0.31135873  0.57286534     1.17600
H647        H  0.05907785  0.27113541  0.54447832     0.33600
H648        H  0.48487883  0.30031192  0.90439323     0.44400
H649        H  0.43721890  0.23659915  0.55092259     0.37900
H650        H  0.51322660  0.16694604  0.94122286     0.34400
H651        H  0.05965547  0.33207806  0.88849259     0.26200
H652        H  0.47807132  0.19498623  0.81781750     0.32100
H653        H  0.43833492  0.15596741  0.41726688     0.38100
H654        H  0.07981589  0.32739679  0.02276452     0.32500
H655        H  0.02021982  0.31699022  0.59961778     0.31400
H656        H  0.98596180  0.24397525  0.66109282     0.33100
H657        H  0.41627528  0.13315188  0.48834019     0.32000
H658        H  0.48498938  0.35272763  0.96240833     0.36000
H659        H  0.39238911  0.31765363  0.97086741     0.28800
H660        H  0.10412642  0.16863362  0.49341421     0.33000
H661        H  0.47125411  0.15645122  0.58339360     0.35900
H662        H  0.01828450  0.29372774  0.64141791     0.28500
H663        H  0.42033659  0.34027258  0.95802421     0.41300
H664        H  0.04355575  0.26118980  0.83900387     0.31400
H665        H  0.02883633  0.31732675  0.87328172     0.39000
H666        H  0.42520676  0.13370509  0.53833925     0.30900
H667        H  0.48676006  0.16662969  0.85165099     0.30900
H668        H  0.07582743  0.14520257  0.50100500     0.31200
C669        C  0.07691394  0.08789462  0.86667264     0.03300
C670        C  0.07734294  0.11845601  0.88881615    -0.12900
C671        C  0.07489530  0.14846647  0.86525451     0.00800
C672        C  0.07726763  0.14811316  0.81912672    -0.11400
C673        C  0.08311495  0.11764760  0.79630661     0.03300
C674        C  0.08199300  0.08724541  0.82110948    -0.10800
H675        H  0.07340892  0.11862553  0.92423885     0.08900
H676        H  0.07304190  0.17148776  0.80180935     0.06400
H677        H  0.08397747  0.06271714  0.80618349     0.06300
C678        C  0.09919457  0.14856860  0.67801672     0.03300
C679        C  0.09976510  0.11691395  0.65441378    -0.12900
C680        C  0.09495960  0.08564502  0.67801606     0.00800
C681        C  0.08668779  0.08784230  0.72284314    -0.11400
C682        C  0.08847112  0.11753931  0.74714683     0.03300
C683        C  0.09556197  0.14715106  0.72435415    -0.10800
H684        H  0.10356738  0.11666152  0.61905453     0.08900
H685        H  0.07874917  0.06523711  0.73855323     0.06400
H686        H  0.09739262  0.17023228  0.74262433     0.06300
N687        N  0.09624125  0.05129470  0.65917201    -0.03300
C688        C  0.06865720  0.03598806  0.65113649    -0.00700
C689        C  0.06303297  0.50898472  0.68294231    -0.23600
C690        C  0.08903228  0.50319690  0.70472370    -0.23800
C691        C  0.10974961  0.02723347  0.68629518    -0.00800
H692        H  0.04390901  0.49188193  0.68389645     0.13000
H693        H  0.09311298  0.48270528  0.72773978     0.13000
N694        N  0.40057934  0.43578477  0.80166315    -0.03300
C695        C  0.42823873  0.45098049  0.80996715    -0.00700
C696        C  0.43262072  0.47861877  0.78265083    -0.23600
C697        C  0.40572870  0.48547629  0.76349493    -0.23800
C698        C  0.38602108  0.46042347  0.77658255    -0.00800
H699        H  0.45152075  0.99511619  0.78229736     0.13000
H700        H  0.40118280  0.00652267  0.74113969     0.13000
Zr701      Zr  0.44423718  0.46425553  0.96693955     2.17500
O702        O  0.40540726  0.42389121  0.94477276    -0.51200
O703        O  0.40068188  0.49866194  0.49223811    -0.74400
O704        O  0.42691434  0.42945382  0.52652876    -0.81200
O705        O  0.47034876  0.96497965  0.85182579    -0.82900
O706        O  0.44935800  0.44823635  0.58935157    -0.78500
O707        O  0.42828053  0.45403510  0.88999088    -0.90200
O708        O  0.41247463  0.05140265  0.51668133    -0.76100
O709        O  0.45320886  0.50165429  0.52565080    -0.85600
O710        O  0.45494549  0.01735992  0.93410027    -0.85300
O711        O  0.48627349  0.43847364  0.00656904    -0.72100
O712        O  0.48896363  0.45382977  0.92292327    -0.84200
Zr713      Zr  0.05310552  0.02240450  0.99272984     2.26400
Zr714      Zr  0.99513263  0.47899892  0.56560652     2.06300
Zr715      Zr  0.50001217  0.00679393  0.89238977     2.10000
Zr716      Zr  0.46530565  0.05447851  0.49305117     1.78800
O717        O  0.51899491  0.99449490  0.81846219    -0.93000
O718        O  0.46065451  0.08357130  0.56424220    -0.40800
O719        O  0.51051854  0.04541150  0.95142480    -0.77400
O720        O  0.00742516  0.03251820  0.53458747    -0.96100
O721        O  0.04059880  0.46870249  0.02501109    -0.89400
O722        O  0.04319990  0.98661427  0.93110516    -0.92300
C723        C  0.39349695  0.02739642  0.51141517     1.01500
C724        C  0.44352589  0.45540460  0.85372053     1.14400
C725        C  0.43100840  0.42897854  0.56844610     1.05200
O726        O  0.97212684  0.50210571  0.63224126    -0.94400
O727        O  0.03039797  0.51019683  0.61022722    -0.90200
O728        O  0.06769318  0.03572073  0.56990831    -0.83300
C729        C  0.05484072  0.02814224  0.60696189     1.11800
O730        O  0.00896779  0.40087088  0.90293678    -0.96400
Zr731      Zr  0.03111245  0.43241065  0.96392391     1.88900
O732        O  0.09793690  0.98847568  0.97388422    -0.73100
O733        O  0.01741948  0.43471562  0.61128453    -0.52300
O734        O  0.03319319  0.39893781  0.03160283    -0.97000
O735        O  0.06079538  0.38092822  0.95397141    -0.54200
O736        O  0.08380448  0.43936806  0.94091195    -0.73600
C737        C  0.10352442  0.46132877  0.95168477     0.98800
O738        O  0.09142272  0.06282700  0.51349741    -0.62400
O739        O  0.47160032  0.05219457  0.85685254    -0.57200
O740        O  0.06711882  0.05825256  0.93195022    -0.93900
O741        O  0.04404671  0.04107895  0.86869540    -0.92300
O742        O  0.43685014  0.08571675  0.93778121    -0.92700
O743        O  0.49119024  0.10820638  0.48557492    -0.91400
C744        C  0.06278660  0.05960228  0.89011908     1.17600
H745        H  0.43819058  0.02448410  0.91574062     0.33600
H746        H  0.01158888  0.04919431  0.55676604     0.44400
H747        H  0.05927019  0.98664111  0.90942132     0.37900
H748        H  0.48025649  0.41677355  0.51824646     0.34400
H749        H  0.43889162  0.08385958  0.57215013     0.26200
H750        H  0.01379540  0.44219536  0.64205483     0.32100
H751        H  0.05339637  0.40369081  0.04444764     0.38100
H752        H  0.41655355  0.07969026  0.43925034     0.32500
H753        H  0.48693568  0.06500378  0.83978520     0.31400
H754        H  0.50830441  0.01052560  0.79868647     0.33100
H755        H  0.07847125  0.38273345  0.97409661     0.32000
H756        H  0.51187635  0.10408464  0.49723430     0.36000
H757        H  0.10823229  0.05981032  0.49210792     0.28800
H758        H  0.38770867  0.42845049  0.96406354     0.33000
H759        H  0.02231246  0.40575202  0.87734002     0.35900
H760        H  0.45905155  0.04094830  0.83414564     0.28500
H761        H  0.08260710  0.08514347  0.50634672     0.41300
H762        H  0.45576285  0.51319218  0.62558844     0.31400
H763        H  0.46956033  0.06839079  0.58675893     0.39000
H764        H  0.06963173  0.38234435  0.92394648     0.30900
H765        H  0.00387500  0.41503100  0.60755951     0.30900
H766        H  0.41301298  0.40149918  0.95422651     0.31200
C767        C  0.40165056  0.40185819  0.78199651     0.03300
C768        C  0.39796151  0.37024029  0.80526424    -0.12900
C769        C  0.39817814  0.33888500  0.78105108     0.00800
C770        C  0.40080869  0.34114720  0.73450825    -0.11400
C771        C  0.40773822  0.37100865  0.71227785     0.03300
C772        C  0.40896957  0.40056606  0.73679151    -0.10800
H773        H  0.39512915  0.37004329  0.84082052     0.08900
H774        H  0.39840992  0.31865122  0.71514078     0.06400
H775        H  0.41590608  0.42365735  0.72102772     0.05900
C776        C  0.41848724  0.40010910  0.59245241     0.03300
C777        C  0.42132803  0.36923839  0.57134654    -0.12900
C778        C  0.42572380  0.33998473  0.59587292     0.00800
C779        C  0.42255175  0.34083616  0.64182343    -0.11400
C780        C  0.41386728  0.37095487  0.66344489     0.03300
C781        C  0.41298106  0.40101379  0.63797773    -0.10800
H782        H  0.42579349  0.36878672  0.53605879     0.08900
H783        H  0.42793464  0.31816622  0.66014243     0.06400
H784        H  0.40901817  0.42540827  0.65256449     0.06300
N785        N  0.14961990  0.80093753  0.40946965    -0.03300
C786        C  0.17729081  0.78574526  0.40105079    -0.00700
C787        C  0.18194423  0.75819091  0.42840945    -0.23600
C788        C  0.15515692  0.75128385  0.44774523    -0.23800
C789        C  0.13530621  0.77629471  0.43471751    -0.00800
H790        H  0.20098159  0.74090781  0.42796176     0.13000
H791        H  0.15035260  0.72933775  0.46794816     0.13000
N792        N  0.34665792  0.68668015  0.05159554    -0.03300
C793        C  0.31919386  0.70239609  0.05955123    -0.00700
C794        C  0.31357068  0.72756569  0.02852101    -0.23600
C795        C  0.34003855  0.73390132  0.00829267    -0.23800
C796        C  0.36033508  0.71045296  0.02423681    -0.00800
H797        H  0.29433232  0.74456171  0.02698935     0.13000
H798        H  0.34438500  0.75463623  0.98578208     0.13000
Zr799      Zr  0.19347560  0.77230980  0.24442065     2.17500
O800        O  0.15706674  0.81473976  0.26897023    -0.51200
O801        O  0.15073843  0.73776831  0.21745829    -0.74400
O802        O  0.17610268  0.80674079  0.18374207    -0.81200
O803        O  0.22025734  0.77141609  0.35923568    -0.82900
O804        O  0.20060856  0.78991904  0.12141961    -0.78500
O805        O  0.17695731  0.78176176  0.32120859    -0.90200
O806        O  0.16291595  0.68591312  0.19162229    -0.76100
O807        O  0.20315099  0.73478332  0.18549530    -0.85600
O808        O  0.20477704  0.71925006  0.27699873    -0.85300
O809        O  0.23559993  0.79766201  0.20467768    -0.72100
O810        O  0.23827909  0.78299395  0.28793464    -0.84200
Zr811      Zr  0.30245778  0.71470129  0.21818735     2.26400
Zr812      Zr  0.24465235  0.75800981  0.14575117     2.06300
Zr813      Zr  0.24991256  0.72926680  0.31887928     2.10000
Zr814      Zr  0.21526317  0.68181148  0.21697936     1.78800
O815        O  0.26797978  0.74082916  0.39346261    -0.93000
O816        O  0.21198887  0.65322894  0.14526558    -0.40800
O817        O  0.26053968  0.69102721  0.25947987    -0.77400
O818        O  0.25721565  0.70419268  0.17649550    -0.96100
O819        O  0.29074419  0.76782028  0.18633927    -0.89400
O820        O  0.29266926  0.75065178  0.27970058    -0.92300
C821        C  0.14388577  0.70979549  0.19787373     1.01500
C822        C  0.19243121  0.78131541  0.35728095     1.14400
C823        C  0.18118409  0.80811499  0.14203279     1.05200
O824        O  0.22084399  0.73589052  0.07915627    -0.94400
O825        O  0.28020245  0.72679902  0.10083022    -0.90200
O826        O  0.31798671  0.70256257  0.14067073    -0.83300
C827        C  0.30497981  0.70976890  0.10357194     1.11800
O828        O  0.25843662  0.83625607  0.30762134    -0.96400
Zr829      Zr  0.28126279  0.80382796  0.24781494     1.88900
O830        O  0.34750185  0.74800742  0.23743176    -0.73100
O831        O  0.26742966  0.80292021  0.10200245    -0.52300
O832        O  0.28603648  0.83697461  0.18025121    -0.97000
O833        O  0.30970372  0.85530054  0.26314201    -0.54200
O834        O  0.33408402  0.79679583  0.27044919    -0.73600
C835        C  0.35385530  0.77477392  0.25976969     0.98800
O836        O  0.33736338  0.67011654  0.19586988    -0.62400
O837        O  0.22151272  0.68359026  0.35343522    -0.57200
O838        O  0.31684168  0.67916091  0.27915249    -0.93900
O839        O  0.29413873  0.69697804  0.34242727    -0.92300
O840        O  0.18662902  0.65050794  0.27252615    -0.92700
O841        O  0.23948812  0.62719108  0.22636045    -0.91400
C842        C  0.31264406  0.67805439  0.32102936     1.17600
H843        H  0.18798152  0.71204420  0.29525840     0.33600
H844        H  0.26193868  0.68748334  0.15447616     0.44400
H845        H  0.30877099  0.75076504  0.30130930     0.37900
H846        H  0.23025157  0.81959183  0.19311743     0.34400
H847        H  0.19021777  0.65164426  0.13771494     0.26200
H848        H  0.26443511  0.79580727  0.07094742     0.32100
H849        H  0.30687049  0.83240479  0.16953536     0.38100
H850        H  0.16525564  0.65777881  0.26925002     0.32500
H851        H  0.23679300  0.67074111  0.37059989     0.31400
H852        H  0.26005240  0.72213612  0.41189614     0.33100
H853        H  0.32754497  0.85521248  0.24318731     0.32000
H854        H  0.26044539  0.63034728  0.21527523     0.36000
H855        H  0.35513322  0.67197377  0.21574012     0.28800
H856        H  0.13878649  0.81150436  0.25043960     0.33000
H857        H  0.26976059  0.82933704  0.33448268     0.35900
H858        H  0.20874693  0.69470068  0.37605754     0.28500
H859        H  0.32723780  0.64885035  0.20456690     0.41300
H860        H  0.20172871  0.72543351  0.08953048     0.31400
H861        H  0.21977740  0.66932755  0.12299396     0.39000
H862        H  0.31833401  0.85242764  0.29314479     0.30900
H863        H  0.25362817  0.82244019  0.10567948     0.30900
H864        H  0.16563260  0.83662674  0.25935110     0.31200
C865        C  0.15073223  0.83493291  0.42899410     0.03300
C866        C  0.15855343  0.83635303  0.47401399    -0.12900
C867        C  0.15819506  0.86610697  0.49824355     0.00800
C868        C  0.15157317  0.89602689  0.47586498    -0.11400
C869        C  0.14786835  0.89799980  0.42947530     0.03300
C870        C  0.14688155  0.86649978  0.40560470    -0.10800
H871        H  0.16535638  0.81321052  0.48981824     0.08900
H872        H  0.15009565  0.91878651  0.49490934     0.06400
H873        H  0.14344581  0.86655324  0.37016390     0.06300
C874        C  0.16866819  0.83715098  0.11827612     0.03300
C875        C  0.16257805  0.83643423  0.07288767    -0.12900
C876        C  0.16343899  0.86654311  0.04742936     0.00800
C877        C  0.17219361  0.89661276  0.06906151    -0.11400
C878        C  0.17591102  0.89730678  0.11491994     0.03300
C879        C  0.17222572  0.86788084  0.13935508    -0.10800
H880        H  0.15821912  0.81211543  0.05837626     0.08900
H881        H  0.17727182  0.91938379  0.05084480     0.06400
H882        H  0.17744124  0.86807067  0.17444005     0.06300
N883        N  0.14827542  0.93216886  0.40925866    -0.03300
C884        C  0.17671832  0.94566811  0.40118718    -0.00700
C885        C  0.18379776  0.96923923  0.43359720    -0.23600
C886        C  0.15734708  0.97860575  0.45209316    -0.23800
C887        C  0.13561929  0.95749170  0.43500820    -0.00800
H888        H  0.20556031  0.48189855  0.43919658     0.13000
H889        H  0.15556713  0.49805619  0.47774744     0.13000
N890        N  0.34871082  0.55523660  0.05444114    -0.03300
C891        C  0.32033237  0.54119220  0.06206169    -0.00700
C892        C  0.31448498  0.01510122  0.03329573    -0.23600
C893        C  0.34118597  0.00667029  0.01484375    -0.23800
C894        C  0.36290711  0.52955485  0.03101349    -0.00800
H895        H  0.29472960  0.99891309  0.03272158     0.13000
H896        H  0.34516562  0.98491296  0.99406380     0.13000
Zr897      Zr  0.30140290  0.52459064  0.21913229     2.17500
O898        O  0.33772056  0.56834433  0.19905745    -0.51200
O899        O  0.34505859  0.49009729  0.24314723    -0.74400
O900        O  0.31663338  0.55769679  0.28193700    -0.81200
O901        O  0.27735298  0.02511428  0.10318149    -0.82900
O902        O  0.28988885  0.54292739  0.34327674    -0.78500
O903        O  0.31914267  0.53651476  0.14279936    -0.90200
O904        O  0.33564454  0.93702131  0.26510530    -0.76100
O905        O  0.29195819  0.48631282  0.27787854    -0.85600
O906        O  0.29250206  0.97190833  0.18506547    -0.85300
O907        O  0.25801852  0.54778218  0.25851462    -0.72100
O908        O  0.25698317  0.53532636  0.17481522    -0.84200
Zr909      Zr  0.19412327  0.96336463  0.24189683     2.26400
Zr910      Zr  0.24909545  0.50752466  0.31729419     2.06300
Zr911      Zr  0.24782735  0.98188866  0.14216996     2.10000
Zr912      Zr  0.28226708  0.93325253  0.24400219     1.78800
O913        O  0.22638403  0.99682810  0.07044243    -0.93000
O914        O  0.28771018  0.90530866  0.31605514    -0.40800
O915        O  0.23739400  0.94256279  0.20077398    -0.77400
O916        O  0.23917725  0.95326933  0.28433382    -0.96100
O917        O  0.20342828  0.51662014  0.27550381    -0.89400
O918        O  0.20365007  0.00052575  0.18104148    -0.92300
C919        C  0.35382174  0.96186610  0.26001866     1.01500
C920        C  0.30468305  0.53527582  0.10578533     1.14400
C921        C  0.31011738  0.56025396  0.32309784     1.05200
O922        O  0.27344955  0.48301189  0.38222883    -0.94400
O923        O  0.21378286  0.47452658  0.36114584    -0.90200
O924        O  0.17821746  0.94786403  0.31906790    -0.83300
C925        C  0.19041192  0.95517907  0.35674975     1.11800
O926        O  0.23565341  0.58561569  0.15420673    -0.96400
Zr927      Zr  0.21280207  0.55347455  0.21442963     1.88900
O928        O  0.14883981  0.99687031  0.22385631    -0.73100
O929        O  0.22473440  0.54981763  0.36366730    -0.52300
O930        O  0.20662568  0.58545887  0.28242627    -0.97000
O931        O  0.18370791  0.60482741  0.19991991    -0.54200
O932        O  0.16060430  0.54544834  0.19052458    -0.73600
C933        C  0.14130087  0.52356604  0.20304108     0.98800
O934        O  0.15763223  0.91907703  0.25939117    -0.62400
O935        O  0.27862759  0.93969535  0.10446472    -0.57200
O936        O  0.18332028  0.92821962  0.17930462    -0.93900
O937        O  0.20787104  0.94497045  0.11686253    -0.92300
O938        O  0.30912784  0.90133137  0.18726263    -0.92700
O939        O  0.25624425  0.87965930  0.23593992    -0.91400
C940        C  0.18920591  0.92610369  0.13791799     1.17600
H941        H  0.30973723  0.96526916  0.16732188     0.33600
H942        H  0.23489070  0.93599511  0.30587932     0.44400
H943        H  0.18762699  0.00040908  0.15933270     0.37900
H944        H  0.26257482  0.56979761  0.27027065     0.34400
H945        H  0.30952131  0.90586540  0.32360820     0.26200
H946        H  0.22956900  0.54273757  0.39431937     0.32100
H947        H  0.18562749  0.58065282  0.29225011     0.38100
H948        H  0.33085621  0.90716931  0.19032319     0.32500
H949        H  0.26519364  0.93021373  0.08141355     0.31400
H950        H  0.23625484  0.98139646  0.04913027     0.33100
H951        H  0.16571617  0.60390994  0.21947276     0.32000
H952        H  0.23553177  0.88365988  0.24753196     0.36000
H953        H  0.14112851  0.92138138  0.23735515     0.28800
H954        H  0.35602447  0.56367580  0.21707809     0.33000
H955        H  0.22301021  0.58047276  0.12799197     0.35900
H956        H  0.29398536  0.95277061  0.08783096     0.28500
H957        H  0.16797463  0.89765946  0.25192379     0.41300
H958        H  0.29384284  0.47600358  0.37192822     0.31400
H959        H  0.27849255  0.92063157  0.33805358     0.39000
H960        H  0.17529787  0.60226591  0.16971745     0.30900
H961        H  0.23664085  0.57069328  0.35915337     0.30900
H962        H  0.32927156  0.58953650  0.21110995     0.31200
C963        C  0.32343994  0.58883081  0.34645231     0.03300
C964        C  0.32568781  0.61872856  0.32260600    -0.12900
C965        C  0.32639511  0.64943704  0.34445299     0.00800
C966        C  0.33223566  0.65012033  0.38983768    -0.11400
C967        C  0.33308424  0.61975828  0.41478249     0.03300
C968        C  0.32650084  0.58932283  0.39245612    -0.10800
H969        H  0.32102667  0.61845355  0.28737279     0.08900
H970        H  0.33506558  0.67459863  0.40466371     0.06400
H971        H  0.32235497  0.56611091  0.41020501     0.06300
C972        C  0.34930278  0.58918306  0.03384075     0.03300
C973        C  0.34640719  0.59039284  0.48644151    -0.12900
C974        C  0.33868598  0.61989329  0.46378479     0.00800
C975        C  0.33609892  0.64944157  0.48812503    -0.11400
C976        C  0.34524246  0.65217891  0.03323933     0.03300
C977        C  0.34962636  0.62096345  0.05724055    -0.10800
H978        H  0.34915589  0.56757042  0.46778222     0.08900
H979        H  0.32766635  0.67186322  0.47234843     0.06400
H980        H  0.35292926  0.62134929  0.09270483     0.06300
N981        N  0.09850116  0.68121513  0.15727549    -0.03300
C982        C  0.06998344  0.69480944  0.14957256    -0.00700
C983        C  0.06413548  0.72096581  0.17868234    -0.23600
C984        C  0.09095946  0.72993104  0.19628619    -0.23800
C985        C  0.11201632  0.70694500  0.18134344    -0.00800
H986        H  0.04408826  0.73675070  0.18002791     0.13000
H987        H  0.09479624  0.75157251  0.21730053     0.13000
N988        N  0.39844891  0.80372912  0.30078369    -0.03300
C989        C  0.42698728  0.79028347  0.30866848    -0.00700
C990        C  0.43401000  0.76665040  0.27626910    -0.23600
C991        C  0.40749136  0.75723562  0.25806520    -0.23800
C992        C  0.38574821  0.77831928  0.27533954    -0.00800
H993        H  0.45456068  0.75181291  0.27320683     0.13000
H994        H  0.40430563  0.73652860  0.23527556     0.13000
Zr995      Zr  0.05146365  0.71200904  0.49210832     2.17500
O996        O  0.08759244  0.66750305  0.01355614    -0.51200
O997        O  0.09533914  0.74625392  0.46896899    -0.74400
O998        O  0.06686516  0.67940021  0.42880551    -0.81200
O999        O  0.02743559  0.71223696  0.10836582    -0.82900
O1000       O  0.03968248  0.69394265  0.36774671    -0.78500
O1001       O  0.06976803  0.70047167  0.06898014    -0.90200
O1002       O  0.08456961  0.79868860  0.44341749    -0.76100
O1003       O  0.04193850  0.75043348  0.43354183    -0.85600
O1004       O  0.04170985  0.76486706  0.52544534    -0.85300
O1005       O  0.50830365  0.68848165  0.45317126    -0.72100
O1006       O  0.00798285  0.70175793  0.03714130    -0.84200
Zr1007     Zr  0.44356831  0.77292313  0.46840233     2.26400
Zr1008     Zr  0.49924232  0.72888552  0.39462777     2.06300
Zr1009     Zr  0.99816604  0.75533850  0.06900183     2.10000
Zr1010     Zr  0.03158793  0.80336516  0.46617695     1.78800
O1011       O  0.97498016  0.74039231  0.13952162    -0.93000
O1012       O  0.03656328  0.83194014  0.39440849    -0.40800
O1013       O  0.48653504  0.79386676  0.50986333    -0.77400
O1014       O  0.48875381  0.78272049  0.42613496    -0.96100
O1015       O  0.45345808  0.71975452  0.43609509    -0.89400
O1016       O  0.45385175  0.73606511  0.02972412    -0.92300
C1017       C  0.10307651  0.77432149  0.45018784     1.01500
C1018       C  0.05487099  0.70114492  0.10566249     1.14400
C1019       C  0.06014543  0.67678016  0.38771274     1.05200
O1020       O  0.52337013  0.75190103  0.32869314    -0.94400
O1021       O  0.46466752  0.76225413  0.35009251    -0.90200
O1022       O  0.42823126  0.78781393  0.39072419    -0.83300
C1023       C  0.44062726  0.78058641  0.35311253     1.11800
O1024       O  0.48810024  0.65253080  0.05830498    -0.96400
Zr1025     Zr  0.46403026  0.68280219  0.99749955     1.88900
O1026       O  0.39960038  0.73933729  0.98698399    -0.73100
O1027       O  0.47395994  0.68647188  0.34966290    -0.52300
O1028       O  0.45919061  0.64963425  0.42922096    -0.97000
O1029       O  0.43574514  0.63090534  0.01121906    -0.54200
O1030       O  0.41159061  0.69028597  0.02098606    -0.73600
C1031       C  0.39242752  0.71274006  0.00942885     0.98800
O1032       O  0.40677017  0.81680864  0.45017155    -0.62400
O1033       O  0.02898147  0.79605538  0.10916823    -0.57200
O1034       O  0.43275001  0.80847740  0.03083658    -0.93900
O1035       O  0.45833970  0.79329823  0.09318027    -0.92300
O1036       O  0.05883602  0.83545253  0.52215215    -0.92700
O1037       O  0.00523370  0.85676715  0.47541637    -0.91400
C1038       C  0.43891752  0.81126709  0.07208098     1.17600
H1039       H  0.05997467  0.77163942  0.04367199     0.33600
H1040       H  0.48457984  0.79989545  0.40438019     0.44400
H1041       H  0.43778100  0.73644672  0.05136548     0.37900
H1042       H  0.51303403  0.66650950  0.44143574     0.34400
H1043       H  0.05835426  0.83161282  0.38667442     0.26200
H1044       H  0.47619034  0.69472037  0.31888224     0.32100
H1045       H  0.43990836  0.65451687  0.91829966     0.38100
H1046       H  0.08044716  0.82899329  0.51918573     0.32500
H1047       H  0.01624305  0.80306679  0.13451147     0.31400
H1048       H  0.98833847  0.75041916  0.16226209     0.33100
H1049       H  0.41755847  0.63192711  0.99199986     0.32000
H1050       H  0.48448240  0.85249067  0.46227961     0.36000
H1051       H  0.38999077  0.81406064  0.47168443     0.28800
H1052       H  0.10535340  0.67010388  0.99377694     0.33000
H1053       H  0.47451974  0.65616733  0.08397677     0.35900
H1054       H  0.04550874  0.78258567  0.12266759     0.28500
H1055       H  0.41663367  0.83832786  0.45820883     0.41300
H1056       H  0.04534774  0.75955935  0.34045088     0.31400
H1057       H  0.02744692  0.81679661  0.37216730     0.39000
H1058       H  0.42761488  0.63278875  0.04164744     0.30900
H1059       H  0.48721614  0.66632165  0.35118621     0.30900
H1060       H  0.07770479  0.64636633  0.00402074     0.31200
C1061       C  0.07612816  0.58769557  0.36634321     0.03300
C1062       C  0.07604616  0.61839702  0.38813899    -0.12900
C1063       C  0.07342848  0.64823718  0.36420229     0.00800
C1064       C  0.07580231  0.64759993  0.31807501    -0.11400
C1065       C  0.08201586  0.61704065  0.29575063     0.03300
C1066       C  0.08122639  0.58681658  0.32081540    -0.10800
H1067       H  0.07193975  0.61871225  0.42351779     0.08900
H1068       H  0.07146638  0.67077210  0.30027338     0.06400
H1069       H  0.08357151  0.56225468  0.30603432     0.06300
C1070       C  0.09903938  0.64724653  0.17777231     0.03300
C1071       C  0.09924659  0.61546584  0.15432662    -0.12900
C1072       C  0.09405572  0.58434411  0.17819184     0.00800
C1073       C  0.08512763  0.58694946  0.22265311    -0.11400
C1074       C  0.08761790  0.61661335  0.24680340     0.03300
C1075       C  0.09578027  0.64588643  0.22416916    -0.10800
H1076       H  0.10306650  0.61501428  0.11897328     0.08900
H1077       H  0.07646236  0.56463254  0.23836478     0.06400
H1078       H  0.09839162  0.66876161  0.24272394     0.06300
N1079       N  0.09580071  0.54976326  0.16017944    -0.03300
C1080       C  0.06845679  0.53405266  0.15175664    -0.00700
C1081       C  0.06266449  0.01048848  0.18287052    -0.23600
C1082       C  0.08897930  0.00366709  0.20334225    -0.23800
C1083       C  0.10921703  0.52614792  0.18818233    -0.00800
H1084       H  0.04321972  0.99384062  0.18431757     0.13000
H1085       H  0.09299116  0.98292943  0.22600055     0.13000
N1086       N  0.40039470  0.93507528  0.30064304    -0.03300
C1087       C  0.42813892  0.95005065  0.30881004    -0.00700
C1088       C  0.43288493  0.97733328  0.28099782    -0.23600
C1089       C  0.40604690  0.98442259  0.26178304    -0.23800
C1090       C  0.38609386  0.95974725  0.27533194    -0.00800
H1091       H  0.45039351  0.49681641  0.28376494     0.13000
H1092       H  0.39996936  0.50707009  0.24266938     0.13000
Zr1093     Zr  0.44344226  0.96437485  0.46579027     2.17500
O1094       O  0.40710092  0.92158131  0.44267778    -0.51200
O1095       O  0.40063391  0.99964972  0.99188092    -0.74400
O1096       O  0.42579437  0.93081850  0.02762923    -0.81200
O1097       O  0.47078178  0.46548917  0.35125636    -0.82900
O1098       O  0.45066388  0.94653709  0.09006033    -0.78500
O1099       O  0.42735123  0.95506353  0.38862162    -0.90200
O1100       O  0.41344126  0.55160759  0.02004830    -0.76100
O1101       O  0.45318702  0.00198716  0.02591409    -0.85600
O1102       O  0.45520222  0.51723279  0.43381641    -0.85300
O1103       O  0.48552396  0.93895005  0.50575158    -0.72100
O1104       O  0.48839379  0.95313130  0.42256476    -0.84200
Zr1105     Zr  0.05311752  0.52203069  0.49302040     2.26400
Zr1106     Zr  0.99558753  0.97920781  0.06516707     2.06300
Zr1107     Zr  0.50051539  0.50697402  0.39247738     2.10000
Zr1108     Zr  0.46574093  0.55465071  0.99479496     1.78800
O1109       O  0.51879282  0.49536046  0.31797616    -0.93000
O1110       O  0.45818055  0.58203642  0.06625957    -0.40800
O1111       O  0.51079078  0.54513962  0.45205435    -0.77400
O1112       O  0.00655398  0.53208806  0.03484326    -0.96100
O1113       O  0.04106300  0.96860791  0.52441957    -0.89400
O1114       O  0.04341154  0.48576661  0.43193078    -0.92300
C1115       C  0.39477174  0.52738140  0.01416445     1.01500
C1116       C  0.44303615  0.95492946  0.35269078     1.14400
C1117       C  0.43091524  0.92896176  0.06923013     1.05200
O1118       O  0.97286597  0.00206218  0.13218548    -0.94400
O1119       O  0.03038365  0.01082167  0.11003905    -0.90200
O1120       O  0.06692903  0.53508734  0.07046790    -0.83300
C1121       C  0.05432387  0.52700872  0.10756438     1.11800
O1122       O  0.00713550  0.89951949  0.40506212    -0.96400
Zr1123     Zr  0.03126234  0.93281834  0.46286885     1.88900
O1124       O  0.09813704  0.48797059  0.47488769    -0.73100
O1125       O  0.01803454  0.93408751  0.10915223    -0.52300
O1126       O  0.03553596  0.90047206  0.53115716    -0.97000
O1127       O  0.05945790  0.88114625  0.44758855    -0.54200
O1128       O  0.08396046  0.93931454  0.43976122    -0.73600
C1129       C  0.10378737  0.96107337  0.45075991     0.98800
O1130       O  0.08829914  0.56544981  0.01307286    -0.62400
O1131       O  0.47339100  0.55359395  0.35759421    -0.57200
O1132       O  0.06708127  0.55757726  0.43157213    -0.93900
O1133       O  0.04313316  0.54123958  0.36856129    -0.92300
O1134       O  0.43673501  0.58547376  0.43791267    -0.92700
O1135       O  0.49238058  0.60808403  0.98845182    -0.91400
C1136       C  0.06222958  0.55935890  0.38985082     1.17600
H1137       H  0.43855281  0.52441572  0.41525181     0.33600
H1138       H  0.01061815  0.54865727  0.05728060     0.44400
H1139       H  0.05952710  0.48580906  0.41030451     0.37900
H1140       H  0.48003830  0.91728672  0.01861337     0.34400
H1141       H  0.45330050  0.56347129  0.08699783     0.26200
H1142       H  0.03896235  0.94174847  0.11538952     0.32100
H1143       H  0.05693654  0.90320861  0.54042079     0.38100
H1144       H  0.41638362  0.57920361  0.94160036     0.32500
H1145       H  0.48913705  0.56608243  0.34089193     0.31400
H1146       H  0.50663946  0.51016445  0.29835649     0.33100
H1147       H  0.07736884  0.88122935  0.46739617     0.32000
H1148       H  0.51269225  0.60381209  0.00135638     0.36000
H1149       H  0.10547696  0.56305641  0.99219401     0.28800
H1150       H  0.38879177  0.92527768  0.46106158     0.33000
H1151       H  0.01895759  0.90441181  0.37792136     0.35900
H1152       H  0.46068248  0.54298662  0.33456285     0.28500
H1153       H  0.07840412  0.58699786  0.00488964     0.41300
H1154       H  0.45219191  0.01101969  0.12328959     0.31400
H1155       H  0.47835603  0.59001090  0.07591450     0.39000
H1156       H  0.06800053  0.88393648  0.41752475     0.30900
H1157       H  0.00753954  0.93542527  0.13806733     0.30900
H1158       H  0.41563296  0.89985535  0.45302873     0.31200
C1159       C  0.40118544  0.90100231  0.28128605     0.03300
C1160       C  0.39765836  0.86943817  0.30478671    -0.12900
C1161       C  0.39755875  0.83797407  0.28071013     0.00800
C1162       C  0.39960099  0.84011921  0.23405470    -0.11400
C1163       C  0.40632434  0.86998079  0.21158951     0.03300
C1164       C  0.40813953  0.89949394  0.23604624    -0.10800
H1165       H  0.39523646  0.86935247  0.34040768     0.08900
H1166       H  0.39705383  0.81755953  0.21483090     0.06400
H1167       H  0.41533903  0.92243756  0.22019944     0.05900
C1168       C  0.41785593  0.89996095  0.09232626     0.03300
C1169       C  0.42114786  0.86930975  0.07080759    -0.12900
C1170       C  0.42490614  0.83975885  0.09497729     0.00800
C1171       C  0.42086425  0.84013755  0.14080064    -0.11400
C1172       C  0.41215748  0.87012007  0.16268224     0.03300
C1173       C  0.41150606  0.90041341  0.13759491    -0.10800
H1174       H  0.42642549  0.86925084  0.03573944     0.08900
H1175       H  0.42581403  0.81724315  0.15887830     0.06400
H1176       H  0.40717733  0.92468684  0.15231333     0.06300
N1177       N  0.15001779  0.80158879  0.90935015    -0.03300
C1178       C  0.17779352  0.78684869  0.90063109    -0.00700
C1179       C  0.18284853  0.75925092  0.92773964    -0.23600
C1180       C  0.15622666  0.75190728  0.94734086    -0.23800
C1181       C  0.13605640  0.77664298  0.93450112    -0.00800
H1182       H  0.20212649  0.74233880  0.92710273     0.13000
H1183       H  0.15175404  0.72992049  0.96763046     0.13000
N1184       N  0.34584231  0.68610299  0.55150604    -0.03300
C1185       C  0.31829012  0.70139816  0.55994404    -0.00700
C1186       C  0.31202573  0.72614665  0.52852228    -0.23600
C1187       C  0.33829122  0.73292836  0.50786254    -0.23800
C1188       C  0.35906880  0.71004778  0.52389483    -0.00800
H1189       H  0.29248936  0.74271893  0.52698337     0.13000
H1190       H  0.34217772  0.75357848  0.48504666     0.13000
Zr1191     Zr  0.19357100  0.77264860  0.74442153     2.17500
O1192       O  0.15592241  0.81435874  0.76703583    -0.51200
O1193       O  0.15171661  0.73727667  0.71658479    -0.74400
O1194       O  0.17640359  0.80722841  0.68386598    -0.81200
O1195       O  0.22077375  0.77384134  0.85815235    -0.82900
O1196       O  0.20125441  0.79066081  0.62178767    -0.78500
O1197       O  0.17692232  0.78254767  0.82093325    -0.90200
O1198       O  0.16340395  0.68480993  0.69255700    -0.76100
O1199       O  0.20367750  0.73500730  0.68589147    -0.85600
O1200       O  0.20458265  0.71978090  0.77772987    -0.85300
O1201       O  0.23572479  0.79806562  0.70504813    -0.72100
O1202       O  0.23804285  0.78345295  0.78855727    -0.84200
Zr1203     Zr  0.30260324  0.71533811  0.71904785     2.26400
Zr1204     Zr  0.24507931  0.75844585  0.64623411     2.06300
Zr1205     Zr  0.24961930  0.72980488  0.81984468     2.10000
Zr1206     Zr  0.21563548  0.68218985  0.71815521     1.78800
O1207       O  0.26738129  0.74115087  0.89468602    -0.93000
O1208       O  0.20774108  0.65508306  0.64666652    -0.40800
O1209       O  0.26085356  0.69143436  0.76064778    -0.77400
O1210       O  0.25735316  0.70464828  0.67728318    -0.96100
O1211       O  0.29104203  0.76851293  0.68719225    -0.89400
O1212       O  0.29245699  0.75113921  0.78065003    -0.92300
C1213       C  0.14461975  0.70907478  0.69778065     1.01500
C1214       C  0.19268898  0.78281233  0.85671353     1.14400
C1215       C  0.18156545  0.80861718  0.64222265     1.05200
O1216       O  0.22233086  0.73554482  0.57929416    -0.94400
O1217       O  0.28003080  0.72647844  0.60166531    -0.90200
O1218       O  0.31758741  0.70186110  0.64139553    -0.83300
C1219       C  0.30456701  0.70911025  0.60427547     1.11800
O1220       O  0.25794657  0.83688799  0.80823761    -0.96400
Zr1221     Zr  0.28105173  0.80437826  0.74874043     1.88900
O1222       O  0.34722849  0.74929170  0.73820650    -0.73100
O1223       O  0.26754365  0.80233334  0.60023907    -0.52300
O1224       O  0.28419342  0.83773412  0.68115527    -0.97000
O1225       O  0.30938338  0.85609541  0.76283235    -0.54200
O1226       O  0.33375576  0.79765215  0.77214787    -0.73600
C1227       C  0.35357852  0.77583797  0.76095411     0.98800
O1228       O  0.34026848  0.67318554  0.69810369    -0.62400
O1229       O  0.22068845  0.68459548  0.85475868    -0.57200
O1230       O  0.31623939  0.67959209  0.78021490    -0.93900
O1231       O  0.29356545  0.69723023  0.84364263    -0.92300
O1232       O  0.18760652  0.65158556  0.77501934    -0.92700
O1233       O  0.24153338  0.62808999  0.72300219    -0.91400
C1234       C  0.31199336  0.67831887  0.82208639     1.17600
H1235       H  0.18765948  0.71277108  0.79588775     0.33600
H1236       H  0.26159095  0.68788030  0.65519865     0.44400
H1237       H  0.30853534  0.75122993  0.80229046     0.37900
H1238       H  0.23027043  0.81997362  0.69353632     0.34400
H1239       H  0.20174841  0.67355637  0.62638921     0.26200
H1240       H  0.26396345  0.79467725  0.56953469     0.32100
H1241       H  0.30457075  0.83283244  0.66895371     0.38100
H1242       H  0.16609645  0.65824102  0.77137017     0.32500
H1243       H  0.23620328  0.66933796  0.86753289     0.31400
H1244       H  0.25836073  0.72320500  0.91331869     0.33100
H1245       H  0.32735069  0.85553135  0.74312388     0.32000
H1246       H  0.26235742  0.63247209  0.71210102     0.36000
H1247       H  0.35733324  0.67600395  0.71906102     0.28800
H1248       H  0.13833107  0.81128511  0.74708659     0.33000
H1249       H  0.27052862  0.83187200  0.83461207     0.35900
H1250       H  0.21078140  0.69506724  0.88067483     0.28500
H1251       H  0.33110029  0.65118909  0.70589543     0.41300
H1252       H  0.20158715  0.72868392  0.58804706     0.31400
H1253       H  0.22797636  0.64801122  0.63600622     0.39000
H1254       H  0.31782034  0.85374354  0.79301629     0.30900
H1255       H  0.25399259  0.82209136  0.60370819     0.30900
H1256       H  0.16463751  0.83649740  0.75876286     0.31200
C1257       C  0.15083149  0.83554586  0.92898987     0.03300
C1258       C  0.15818842  0.83689693  0.97416831    -0.12900
C1259       C  0.15725084  0.86653498  0.99855679     0.00800
C1260       C  0.15065881  0.89645843  0.97613677    -0.11400
C1261       C  0.14779931  0.89860962  0.92959707     0.03300
C1262       C  0.14728682  0.86715575  0.90557686    -0.10800
H1263       H  0.16507645  0.81379246  0.98998918     0.08900
H1264       H  0.14857036  0.91906660  0.99533141     0.06400
H1265       H  0.14439093  0.86726820  0.87003147     0.06300
C1266       C  0.16861518  0.83729377  0.61825483     0.03300
C1267       C  0.16324983  0.83629518  0.57271347    -0.12900
C1268       C  0.16459149  0.86621990  0.54703003     0.00800
C1269       C  0.17364393  0.89623863  0.56852408    -0.11400
C1270       C  0.17637745  0.89728479  0.61457637     0.03300
C1271       C  0.17144990  0.86817725  0.63922767    -0.10800
H1272       H  0.15909840  0.81189162  0.55832151     0.08900
H1273       H  0.17945789  0.91868818  0.55006603     0.06400
H1274       H  0.17564351  0.86858956  0.67458313     0.06300
N1275       N  0.14841133  0.93286074  0.90950191    -0.03300
C1276       C  0.17687135  0.94624025  0.90134640    -0.00700
C1277       C  0.18427828  0.96933541  0.93422852    -0.23600
C1278       C  0.15793654  0.97878282  0.95305292    -0.23800
C1279       C  0.13599981  0.95818724  0.93544253    -0.00800
H1280       H  0.20425748  0.48385168  0.93778995     0.13000
H1281       H  0.15415180  0.49913147  0.97641911     0.13000
N1282       N  0.34838617  0.55475366  0.55334449    -0.03300
C1283       C  0.32005224  0.54097678  0.56199303    -0.00700
C1284       C  0.31381292  0.01648970  0.53253586    -0.23600
C1285       C  0.34051945  0.00739370  0.51448637    -0.23800
C1286       C  0.36195966  0.52904767  0.52921743    -0.00800
H1287       H  0.29372703  0.00082036  0.53152305     0.13000
H1288       H  0.34420148  0.98566027  0.49355933     0.13000
Zr1289     Zr  0.30179001  0.52486433  0.71931150     2.17500
O1290       O  0.33636655  0.57024318  0.69900453    -0.51200
O1291       O  0.34561432  0.49075680  0.74358288    -0.74400
O1292       O  0.31753163  0.55735166  0.78244152    -0.81200
O1293       O  0.27713363  0.02571018  0.60279028    -0.82900
O1294       O  0.28995962  0.54313139  0.84330004    -0.78500
O1295       O  0.31971744  0.53595388  0.64278859    -0.90200
O1296       O  0.33518063  0.93788591  0.76582001    -0.76100
O1297       O  0.29220126  0.48643892  0.77786408    -0.85600
O1298       O  0.29236406  0.97250190  0.68555811    -0.85300
O1299       O  0.25844587  0.54784848  0.75886065    -0.72100
O1300       O  0.25726897  0.53584990  0.67537914    -0.84200
Zr1301     Zr  0.19394080  0.96402051  0.74173928     2.26400
Zr1302     Zr  0.24927815  0.50746062  0.81730628     2.06300
Zr1303     Zr  0.24790970  0.98246818  0.64216099     2.10000
Zr1304     Zr  0.28181777  0.93424252  0.74490940     1.78800
O1305       O  0.22458447  0.99736894  0.57167396    -0.93000
O1306       O  0.28740723  0.90709948  0.81744736    -0.40800
O1307       O  0.23731998  0.94327156  0.70092203    -0.77400
O1308       O  0.23877739  0.95439141  0.78499524    -0.96100
O1309       O  0.20358604  0.51665644  0.77564612    -0.89400
O1310       O  0.20370195  0.00106346  0.68089195    -0.92300
C1311       C  0.35344951  0.96259291  0.76041947     1.01500
C1312       C  0.30476930  0.53569871  0.60612705     1.14400
C1313       C  0.31058625  0.56011765  0.82344450     1.05200
O1314       O  0.27365148  0.48412576  0.88291070    -0.94400
O1315       O  0.21384009  0.47421037  0.86067993    -0.90200
O1316       O  0.17797188  0.94894239  0.81914734    -0.83300
C1317       C  0.19020501  0.95627234  0.85683200     1.11800
O1318       O  0.23505576  0.58428308  0.65268815    -0.96400
Zr1319     Zr  0.21316125  0.55398849  0.71514496     1.88900
O1320       O  0.14895237  0.99777736  0.72308837    -0.73100
O1321       O  0.22401161  0.54996594  0.86231309    -0.52300
O1322       O  0.20919702  0.58757291  0.78215906    -0.97000
O1323       O  0.18497534  0.60616199  0.70171785    -0.54200
O1324       O  0.16051903  0.54671899  0.69297083    -0.73600
C1325       C  0.14149781  0.52404667  0.70394276     0.98800
O1326       O  0.15685030  0.92006458  0.75815004    -0.62400
O1327       O  0.27898262  0.94149576  0.60261642    -0.57200
O1328       O  0.18363190  0.92849665  0.67899875    -0.93900
O1329       O  0.20887289  0.94447971  0.61679972    -0.92300
O1330       O  0.30809468  0.90125072  0.68882075    -0.92700
O1331       O  0.25505771  0.88093574  0.73854873    -0.91400
C1332       C  0.18985842  0.92597314  0.63771296     1.17600
H1333       H  0.30959452  0.96568838  0.66792466     0.33600
H1334       H  0.23463166  0.93715974  0.80666692     0.44400
H1335       H  0.18777069  0.00080957  0.65903851     0.37900
H1336       H  0.26323798  0.56976291  0.77070382     0.34400
H1337       H  0.30934657  0.90646628  0.82416805     0.26200
H1338       H  0.22625688  0.54169620  0.89308700     0.32100
H1339       H  0.18851559  0.58305028  0.79351957     0.38100
H1340       H  0.32920203  0.90973799  0.68817430     0.32500
H1341       H  0.26583871  0.93308203  0.57850921     0.31400
H1342       H  0.23556839  0.98382324  0.54932924     0.33100
H1343       H  0.16692184  0.60535099  0.72117587     0.32000
H1344       H  0.23408323  0.88572241  0.74853088     0.36000
H1345       H  0.14020444  0.92329799  0.73653287     0.28800
H1346       H  0.35492957  0.56642443  0.71679622     0.33000
H1347       H  0.22113526  0.57973308  0.62769093     0.35900
H1348       H  0.29468332  0.95503984  0.58737395     0.28500
H1349       H  0.16663661  0.89853736  0.74970965     0.41300
H1350       H  0.29358187  0.47578946  0.87238209     0.31400
H1351       H  0.27935881  0.92342867  0.83918903     0.39000
H1352       H  0.17659430  0.60432285  0.67140883     0.30900
H1353       H  0.23720380  0.57011520  0.86079598     0.30900
H1354       H  0.32714186  0.59099036  0.71121183     0.31200
C1355       C  0.32365761  0.58885339  0.84675015     0.03300
C1356       C  0.32453055  0.61892023  0.82317828    -0.12900
C1357       C  0.32564415  0.64952184  0.84516294     0.00800
C1358       C  0.33234621  0.65012251  0.89027019    -0.11400
C1359       C  0.33384523  0.61971641  0.91511852     0.03300
C1360       C  0.32767246  0.58916380  0.89262113    -0.10800
H1361       H  0.31887147  0.61871384  0.78823974     0.08900
H1362       H  0.33529316  0.67462603  0.90492382     0.06400
H1363       H  0.32440933  0.56566130  0.91003452     0.06300
C1364       C  0.34896879  0.58878291  0.53297720     0.03300
C1365       C  0.34654851  0.59051111  0.98733259    -0.12900
C1366       C  0.33946888  0.62002873  0.96423609     0.00800
C1367       C  0.33728277  0.64979122  0.98835510    -0.11400
C1368       C  0.34441132  0.65170790  0.53289462     0.03300
C1369       C  0.34900703  0.62043096  0.55664189    -0.10800
H1370       H  0.34878867  0.56742299  0.96916343     0.08900
H1371       H  0.32927799  0.67233840  0.97246808     0.06400
H1372       H  0.35227822  0.62067442  0.59211178     0.06300
N1373       N  0.09882485  0.68115074  0.65705763    -0.03300
C1374       C  0.07045081  0.69526018  0.64929399    -0.00700
C1375       C  0.06525963  0.72199083  0.67773793    -0.23600
C1376       C  0.09224125  0.73047448  0.69510308    -0.23800
C1377       C  0.11280879  0.70672284  0.68085356    -0.00800
H1378       H  0.04553091  0.73828528  0.67887088     0.13000
H1379       H  0.09649016  0.75228947  0.71563556     0.13000
N1380       N  0.39853347  0.80445642  0.80164757    -0.03300
C1381       C  0.42697660  0.79062205  0.80939832    -0.00700
C1382       C  0.43375087  0.76707282  0.77682079    -0.23600
C1383       C  0.40710451  0.75796174  0.75876396    -0.23800
C1384       C  0.38555417  0.77920213  0.77626433    -0.00800
H1385       H  0.45416544  0.75202978  0.77360070     0.13000
H1386       H  0.40369995  0.73729831  0.73597406     0.13000
Zr1387     Zr  0.05225864  0.71210088  0.99246580     2.17500
O1388       O  0.08662642  0.66693445  0.51184768    -0.51200
O1389       O  0.09606483  0.74582934  0.96765695    -0.74400
O1390       O  0.06705583  0.67877904  0.92956126    -0.81200
O1391       O  0.02760196  0.71308483  0.60883194    -0.82900
O1392       O  0.04077217  0.69494157  0.86831930    -0.78500
O1393       O  0.06919528  0.69983635  0.56847022    -0.90200
O1394       O  0.08561493  0.79909211  0.94488967    -0.76100
O1395       O  0.04264378  0.75064623  0.93403468    -0.85600
O1396       O  0.04277495  0.76500935  0.02590985    -0.85300
O1397       O  0.50912421  0.68868899  0.95350894    -0.72100
O1398       O  0.00701993  0.70132447  0.53624457    -0.84200
Zr1399     Zr  0.44462029  0.77305969  0.96864723     2.26400
Zr1400     Zr  0.49995543  0.72881832  0.89471073     2.06300
Zr1401     Zr  0.99707886  0.75476228  0.56848995     2.10000
Zr1402     Zr  0.03252640  0.80356266  0.96685363     1.78800
O1403       O  0.97054599  0.73616386  0.63492581    -0.93000
O1404       O  0.03788380  0.83236432  0.89537763    -0.40800
O1405       O  0.48752859  0.79386136  0.01023787    -0.77400
O1406       O  0.48969377  0.78268754  0.92608251    -0.96100
O1407       O  0.45435525  0.71976320  0.93656386    -0.89400
O1408       O  0.45301615  0.73580462  0.52928552    -0.92300
C1409       C  0.10391570  0.77433374  0.95014315     1.01500
C1410       C  0.05479525  0.70123938  0.60554971     1.14400
C1411       C  0.06059457  0.67684010  0.88829714     1.05200
O1412       O  0.52502526  0.75281937  0.83014509    -0.94400
O1413       O  0.46442996  0.76173379  0.85066450    -0.90200
O1414       O  0.42862086  0.78819576  0.89144962    -0.83300
C1415       C  0.44065873  0.78056495  0.85376287     1.11800
O1416       O  0.48547572  0.65034005  0.55721511    -0.96400
Zr1417     Zr  0.46298926  0.68262598  0.49682349     1.88900
O1418       O  0.39821094  0.73973218  0.48699380    -0.73100
O1419       O  0.47528101  0.68654224  0.84873953    -0.52300
O1420       O  0.46006921  0.64888442  0.93077696    -0.97000
O1421       O  0.43355896  0.63132380  0.50925861    -0.54200
O1422       O  0.41046164  0.69045586  0.52009985    -0.73600
C1423       C  0.39116871  0.71290472  0.50903438     0.98800
O1424       O  0.40937231  0.81827902  0.94949320    -0.62400
O1425       O  0.02684829  0.79410398  0.61261832    -0.57200
O1426       O  0.43258629  0.80884696  0.53048923    -0.93900
O1427       O  0.45693266  0.79225727  0.59322263    -0.92300
O1428       O  0.05978371  0.83529252  0.02318733    -0.92700
O1429       O  0.00641822  0.85714974  0.97499176    -0.91400
C1430       C  0.43821204  0.81103548  0.57198338     1.17600
H1431       H  0.05884371  0.77166578  0.54322887     0.33600
H1432       H  0.48547098  0.79972044  0.90414269     0.44400
H1433       H  0.43697824  0.73610239  0.55095097     0.37900
H1434       H  0.51385722  0.66668560  0.94189298     0.34400
H1435       H  0.05972316  0.83211160  0.88792976     0.26200
H1436       H  0.47729719  0.69528304  0.81815769     0.32100
H1437       H  0.43884201  0.65493665  0.41715787     0.38100
H1438       H  0.08118925  0.82779398  0.02145075     0.32500
H1439       H  0.01655156  0.79477604  0.64171058     0.31400
H1440       H  0.97881783  0.75017487  0.65912145     0.33100
H1441       H  0.41578530  0.63273984  0.48933029     0.32000
H1442       H  0.48475952  0.85174354  0.96190071     0.36000
H1443       H  0.39227745  0.81633195  0.97061688     0.28800
H1444       H  0.10460315  0.67011322  0.49263131     0.33000
H1445       H  0.47214623  0.65473246  0.58295450     0.35900
H1446       H  0.04626810  0.78237772  0.61861556     0.28500
H1447       H  0.41991906  0.83936406  0.95765991     0.41300
H1448       H  0.04446400  0.76048626  0.83952341     0.31400
H1449       H  0.02890717  0.81718427  0.87305937     0.39000
H1450       H  0.42484005  0.63338086  0.53935091     0.30900
H1451       H  0.48876939  0.66656338  0.84966742     0.30900
H1452       H  0.07688707  0.64603876  0.50113355     0.31200
C1453       C  0.07449819  0.58728976  0.86605358     0.03300
C1454       C  0.07450486  0.61788207  0.88812369    -0.12900
C1455       C  0.07314900  0.64797284  0.86456017     0.00800
C1456       C  0.07608565  0.64759499  0.81850378    -0.11400
C1457       C  0.08166711  0.61700248  0.79586864     0.03300
C1458       C  0.08008712  0.58660424  0.82063061    -0.10800
H1459       H  0.06993051  0.61812451  0.92338703     0.08900
H1460       H  0.07262270  0.67106788  0.80102932     0.06400
H1461       H  0.08231149  0.56207477  0.80573006     0.06300
C1462       C  0.09908510  0.64726908  0.67776267     0.03300
C1463       C  0.09948371  0.61548141  0.65446090    -0.12900
C1464       C  0.09411438  0.58448400  0.67838078     0.00800
C1465       C  0.08478549  0.58716071  0.72264146    -0.11400
C1466       C  0.08739236  0.61674463  0.74688228     0.03300
C1467       C  0.09563609  0.64601787  0.72417959    -0.10800
H1468       H  0.10357890  0.61492797  0.61917576     0.08900
H1469       H  0.07584302  0.56490490  0.73814282     0.06400
H1470       H  0.09817908  0.66897501  0.74255368     0.06300
N1471       N  0.09620726  0.54991274  0.66063221    -0.03300
C1472       C  0.06902389  0.53406617  0.65191867    -0.00700
C1473       C  0.06274449  0.01108022  0.68242451    -0.23600
C1474       C  0.08921837  0.00418037  0.70241364    -0.23800
C1475       C  0.10945224  0.52655785  0.68910470    -0.00800
H1476       H  0.04331548  0.99443000  0.68411505     0.13000
H1477       H  0.09337639  0.98337775  0.72491184     0.13000
N1478       N  0.39987822  0.93571002  0.80120051    -0.03300
C1479       C  0.42749437  0.95079610  0.80983944    -0.00700
C1480       C  0.43241359  0.97801540  0.78198717    -0.23600
C1481       C  0.40578942  0.98486842  0.76201027    -0.23800
C1482       C  0.38573281  0.96031331  0.77559507    -0.00800
H1483       H  0.45152218  0.49602084  0.78305559     0.13000
H1484       H  0.40077075  0.50738843  0.74327732     0.13000
Zr1485     Zr  0.44363078  0.96451359  0.96678249     2.17500
O1486       O  0.40753885  0.92137919  0.94400809    -0.51200
O1487       O  0.40041077  0.99911375  0.49247625    -0.74400
O1488       O  0.42640676  0.93006964  0.52671511    -0.81200
O1489       O  0.47107778  0.46617388  0.85161137    -0.82900
O1490       O  0.45025037  0.94709876  0.58939099    -0.78500
O1491       O  0.42708101  0.95483193  0.88990202    -0.90200
O1492       O  0.41268955  0.55035571  0.51845637    -0.76100
O1493       O  0.45312347  0.00168913  0.52496801    -0.85600
O1494       O  0.45517739  0.51742053  0.93477892    -0.85300
O1495       O  0.48557803  0.93913954  0.00706842    -0.72100
O1496       O  0.48850798  0.95312035  0.92363810    -0.84200
Zr1497     Zr  0.05196122  0.52180861  0.99291883     2.26400
Zr1498     Zr  0.99504279  0.97865216  0.56525467     2.06300
Zr1499     Zr  0.50043149  0.50797319  0.89289088     2.10000
Zr1500     Zr  0.46526357  0.55453677  0.49403909     1.78800
O1501       O  0.51761489  0.49944110  0.81713197    -0.93000
O1502       O  0.46036938  0.58398820  0.56502315    -0.40800
O1503       O  0.51111842  0.54601185  0.95245185    -0.77400
O1504       O  0.00767494  0.53275767  0.53452624    -0.96100
O1505       O  0.04159457  0.96922135  0.02439173    -0.89400
O1506       O  0.04227126  0.48555564  0.93174093    -0.92300
C1507       C  0.39373656  0.52649903  0.51205409     1.01500
C1508       C  0.44253013  0.95523284  0.85376020     1.14400
C1509       C  0.43106474  0.92881931  0.56852089     1.05200
O1510       O  0.97216941  0.99965686  0.63319822    -0.94400
O1511       O  0.03047986  0.01046646  0.60952859    -0.90200
O1512       O  0.06799136  0.53489828  0.57070125    -0.83300
C1513       C  0.05501207  0.52731630  0.60770313     1.11800
O1514       O  0.00791537  0.90081163  0.90412014    -0.96400
Zr1515     Zr  0.03177091  0.93337410  0.96286368     1.88900
O1516       O  0.09708705  0.48811847  0.97403341    -0.73100
O1517       O  0.01735913  0.93394718  0.61010314    -0.52300
O1518       O  0.03572829  0.89984025  0.03018770    -0.97000
O1519       O  0.06053969  0.88186648  0.94873042    -0.54200
O1520       O  0.08432535  0.94033723  0.93958332    -0.73600
C1521       C  0.10417368  0.96195606  0.95095462     0.98800
O1522       O  0.09001117  0.56505009  0.51342229    -0.62400
O1523       O  0.47158186  0.55441430  0.86066098    -0.57200
O1524       O  0.06514274  0.55754903  0.93142675    -0.93900
O1525       O  0.04263459  0.53965829  0.86808871    -0.92300
O1526       O  0.43794013  0.58556369  0.93792452    -0.92700
O1527       O  0.49096339  0.60831409  0.48560811    -0.91400
C1528       C  0.06089209  0.55870904  0.88953881     1.17600
H1529       H  0.43827229  0.52450396  0.91660962     0.33600
H1530       H  0.01220826  0.54956323  0.55647195     0.44400
H1531       H  0.05841035  0.48550343  0.91015911     0.37900
H1532       H  0.48008352  0.91702730  0.51716629     0.34400
H1533       H  0.43868747  0.58355025  0.57339398     0.26200
H1534       H  0.03905781  0.94005645  0.61262302     0.32100
H1535       H  0.05643802  0.90425077  0.04142962     0.38100
H1536       H  0.41539153  0.57810844  0.44095489     0.32500
H1537       H  0.48714412  0.57037059  0.84968081     0.31400
H1538       H  0.50840923  0.51806150  0.79982338     0.33100
H1539       H  0.07828619  0.88227311  0.96884877     0.32000
H1540       H  0.51202054  0.60414336  0.49572389     0.36000
H1541       H  0.10776288  0.56126579  0.49395920     0.28800
H1542       H  0.38916200  0.92499764  0.96226950     0.33000
H1543       H  0.02001313  0.90587592  0.87729309     0.35900
H1544       H  0.46227073  0.54497821  0.83362690     0.28500
H1545       H  0.08118922  0.58672492  0.50341847     0.41300
H1546       H  0.45362654  0.01261814  0.62229653     0.31400
H1547       H  0.46994671  0.56939359  0.58761912     0.39000
H1548       H  0.06928659  0.88444401  0.91876062     0.30900
H1549       H  0.00906379  0.93774059  0.64013801     0.30900
H1550       H  0.41620072  0.89976685  0.95452744     0.31200
C1551       C  0.40104009  0.90168160  0.78171882     0.03300
C1552       C  0.39765874  0.87014966  0.80527613    -0.12900
C1553       C  0.39791305  0.83865200  0.78135704     0.00800
C1554       C  0.40025263  0.84068297  0.73469921    -0.11400
C1555       C  0.40675646  0.87054062  0.71201696     0.03300
C1556       C  0.40814422  0.90017792  0.73642144    -0.10800
H1557       H  0.39501294  0.87012683  0.84086430     0.08900
H1558       H  0.39790940  0.81802326  0.71566957     0.06400
H1559       H  0.41503525  0.92319538  0.72048411     0.05900
C1560       C  0.41800345  0.90000425  0.59216512     0.03300
C1561       C  0.42066946  0.86922676  0.57079162    -0.12900
C1562       C  0.42449059  0.83972335  0.59505760     0.00800
C1563       C  0.42079133  0.84032926  0.64099292    -0.11400
C1564       C  0.41250750  0.87049679  0.66292931     0.03300
C1565       C  0.41208554  0.90071121  0.63761741    -0.10800
H1566       H  0.42547230  0.86898942  0.53558987     0.08900
H1567       H  0.42571011  0.81743898  0.65906659     0.06400
H1568       H  0.40828161  0.92510722  0.65226907     0.06300
N1569       N  0.65028572  0.30092215  0.41011625    -0.03300
C1570       C  0.67790076  0.28556521  0.40175035    -0.00700
C1571       C  0.68245437  0.25810375  0.42932768    -0.23600
C1572       C  0.65568741  0.25151534  0.44894743    -0.23800
C1573       C  0.63589055  0.27646837  0.43556950    -0.00800
H1574       H  0.70137011  0.24065516  0.42890078     0.13000
H1575       H  0.65081534  0.22974758  0.46944717     0.13000
N1576       N  0.84620301  0.18729090  0.05102031    -0.03300
C1577       C  0.81899278  0.20335555  0.05938896    -0.00700
C1578       C  0.81332840  0.22861052  0.02849698    -0.23600
C1579       C  0.83959491  0.23442650  0.00751702    -0.23800
C1580       C  0.85979231  0.21075517  0.02315750    -0.00800
H1581       H  0.79432737  0.24596507  0.02747999     0.13000
H1582       H  0.84396077  0.25510401  0.98493020     0.13000
Zr1583     Zr  0.69425913  0.27273760  0.24503142     2.17500
O1584       O  0.65913786  0.31644386  0.26958407    -0.51200
O1585       O  0.65106642  0.23825109  0.21892447    -0.74400
O1586       O  0.67619604  0.30657436  0.18435710    -0.81200
O1587       O  0.72077581  0.27068052  0.35995162    -0.82900
O1588       O  0.70177010  0.29172772  0.12208639    -0.78500
O1589       O  0.67763070  0.28178595  0.32183856    -0.90200
O1590       O  0.66336687  0.18662735  0.19236905    -0.76100
O1591       O  0.70402671  0.23590269  0.18537406    -0.85600
O1592       O  0.70568969  0.21953497  0.27692996    -0.85300
O1593       O  0.73624133  0.29859134  0.20548734    -0.72100
O1594       O  0.73907543  0.28310169  0.28865586    -0.84200
Zr1595     Zr  0.80330850  0.21575086  0.21800926     2.26400
Zr1596     Zr  0.74560283  0.25953210  0.14613603     2.06300
Zr1597     Zr  0.75080072  0.22921559  0.31885719     2.10000
Zr1598     Zr  0.71608301  0.18271556  0.21630266     1.78800
O1599       O  0.76867821  0.23979651  0.39380585    -0.93000
O1600       O  0.71206496  0.15517046  0.14391163    -0.40800
O1601       O  0.76146284  0.19138580  0.25896528    -0.77400
O1602       O  0.75800068  0.20555916  0.17640910    -0.96100
O1603       O  0.79167538  0.26913489  0.18679661    -0.89400
O1604       O  0.79344285  0.25123569  0.28000603    -0.92300
C1605       C  0.64422957  0.21035116  0.19904724     1.01500
C1606       C  0.69304634  0.28096480  0.35796202     1.14400
C1607       C  0.68145378  0.30863066  0.14278504     1.05200
O1608       O  0.72217200  0.23831788  0.07884192    -0.94400
O1609       O  0.78035712  0.22767121  0.10101536    -0.90200
O1610       O  0.81846468  0.20366977  0.14040869    -0.83300
C1611       C  0.80514522  0.21070609  0.10351125     1.11800
O1612       O  0.75764209  0.33674065  0.30758829    -0.96400
Zr1613     Zr  0.78182612  0.30459484  0.24868430     1.88900
O1614       O  0.84824318  0.24913332  0.23724845    -0.73100
O1615       O  0.76866705  0.30455606  0.10281415    -0.52300
O1616       O  0.78670803  0.33832119  0.18165872    -0.97000
O1617       O  0.80988873  0.35590540  0.26616216    -0.54200
O1618       O  0.83465452  0.29762324  0.27088336    -0.73600
C1619       C  0.85447363  0.27576411  0.25990821     0.98800
O1620       O  0.83852826  0.17200278  0.19387800    -0.62400
O1621       O  0.72259843  0.18312468  0.35284605    -0.57200
O1622       O  0.81861811  0.18021289  0.27839683    -0.93900
O1623       O  0.79530354  0.19719949  0.34164525    -0.92300
O1624       O  0.68766818  0.15098798  0.27162305    -0.92700
O1625       O  0.74126817  0.12838315  0.22272256    -0.91400
C1626       C  0.81417094  0.17876170  0.32019647     1.17600
H1627       H  0.68894132  0.21222502  0.29519729     0.33600
H1628       H  0.76260384  0.18878961  0.15441862     0.44400
H1629       H  0.80957895  0.25131932  0.30155532     0.37900
H1630       H  0.73072023  0.32054587  0.19418596     0.34400
H1631       H  0.69027555  0.15449136  0.13619507     0.26200
H1632       H  0.79008770  0.29754796  0.09907599     0.32100
H1633       H  0.80764306  0.33401079  0.17117818     0.38100
H1634       H  0.66654800  0.15942763  0.27017567     0.32500
H1635       H  0.73833710  0.16821214  0.36573356     0.31400
H1636       H  0.75959098  0.22171516  0.41214505     0.33100
H1637       H  0.82763907  0.35662171  0.24605243     0.32000
H1638       H  0.76120133  0.13163271  0.20818711     0.36000
H1639       H  0.85648068  0.17391708  0.21339781     0.28800
H1640       H  0.64073905  0.31396081  0.25108408     0.33000
H1641       H  0.76961423  0.33145032  0.33447244     0.35900
H1642       H  0.71236516  0.19333422  0.37869924     0.28500
H1643       H  0.82880511  0.15046135  0.20233591     0.41300
H1644       H  0.70351903  0.22677044  0.08900200     0.31400
H1645       H  0.72047889  0.17116316  0.12199364     0.39000
H1646       H  0.81866646  0.35236558  0.29596535     0.30900
H1647       H  0.75969726  0.30214508  0.07296266     0.30900
H1648       H  0.66842742  0.33795355  0.25997182     0.31200
C1649       C  0.65137936  0.33494399  0.42954275     0.03300
C1650       C  0.65899507  0.33646609  0.47463191    -0.12900
C1651       C  0.65722585  0.36603487  0.49912477     0.00800
C1652       C  0.64975417  0.39570881  0.47690763    -0.11400
C1653       C  0.64719538  0.39787161  0.43034759     0.03300
C1654       C  0.64722941  0.36647093  0.40620734    -0.10800
H1655       H  0.66644091  0.31353090  0.49037735     0.08900
H1656       H  0.64706358  0.41815119  0.49633325     0.06400
H1657       H  0.64430153  0.36657620  0.37066579     0.06300
C1658       C  0.66755059  0.33697621  0.11933122     0.03300
C1659       C  0.66226074  0.33613949  0.07378059    -0.12900
C1660       C  0.66280315  0.36627092  0.04852774     0.00800
C1661       C  0.67082899  0.39648597  0.07047563    -0.11400
C1662       C  0.67394858  0.39718214  0.11651477     0.03300
C1663       C  0.66952594  0.36777349  0.14077346    -0.10800
H1664       H  0.65892267  0.31172142  0.05895776     0.08900
H1665       H  0.67595063  0.41927250  0.05228309     0.06400
H1666       H  0.67376318  0.36799258  0.17612597     0.06300
N1667       N  0.64797011  0.43211091  0.41038203    -0.03300
C1668       C  0.67653158  0.44529854  0.40252265    -0.00700
C1669       C  0.68394626  0.46815012  0.43566318    -0.23600
C1670       C  0.65754143  0.47783743  0.45415429    -0.23800
C1671       C  0.63555245  0.45743568  0.43629408    -0.00800
H1672       H  0.70486984  0.98316977  0.43741517     0.13000
H1673       H  0.65479108  0.99885832  0.47592833     0.13000
N1674       N  0.84878912  0.05588363  0.05375011    -0.03300
C1675       C  0.82050133  0.04171530  0.06152060    -0.00700
C1676       C  0.81472024  0.51417337  0.03385114    -0.23600
C1677       C  0.84159022  0.50599661  0.01580133    -0.23800
C1678       C  0.86278552  0.03039846  0.02968702    -0.00800
H1679       H  0.79516773  0.49767420  0.03318016     0.13000
H1680       H  0.84588526  0.48420106  0.99521339     0.13000
Zr1681     Zr  0.80180778  0.02488165  0.21844548     2.17500
O1682       O  0.83773264  0.06912648  0.19848356    -0.51200
O1683       O  0.84550768  0.99080808  0.24324846    -0.74400
O1684       O  0.81624953  0.05878039  0.28078993    -0.81200
O1685       O  0.77717536  0.52347818  0.10298451    -0.82900
O1686       O  0.78963936  0.04363819  0.34206994    -0.78500
O1687       O  0.81964538  0.03714726  0.14233328    -0.90200
O1688       O  0.83456193  0.43791879  0.26746969    -0.76100
O1689       O  0.79192011  0.98715275  0.27772682    -0.85600
O1690       O  0.79124223  0.47221167  0.18604227    -0.85300
O1691       O  0.75817666  0.04829835  0.25686908    -0.72100
O1692       O  0.75763966  0.03473795  0.17335274    -0.84200
Zr1693     Zr  0.69332643  0.46355392  0.24328217     2.26400
Zr1694     Zr  0.74861377  0.00856065  0.31595347     2.06300
Zr1695     Zr  0.74646626  0.48193579  0.14319818     2.10000
Zr1696     Zr  0.78136040  0.43388380  0.24553116     1.78800
O1697       O  0.72301002  0.49852150  0.07343332    -0.93000
O1698       O  0.78669775  0.40575773  0.31749860    -0.40800
O1699       O  0.73649021  0.44267516  0.20210011    -0.77400
O1700       O  0.73839331  0.45398947  0.28603634    -0.96100
O1701       O  0.70327278  0.01693945  0.27325228    -0.89400
O1702       O  0.70253762  0.50066225  0.18228975    -0.92300
C1703       C  0.85272315  0.46267613  0.26173106     1.01500
C1704       C  0.80522256  0.03525374  0.10535855     1.14400
C1705       C  0.80973391  0.06120512  0.32194624     1.05200
O1706       O  0.77140351  0.98793985  0.38428054    -0.94400
O1707       O  0.71366276  0.97502511  0.35974845    -0.90200
O1708       O  0.67800010  0.44752796  0.32047413    -0.83300
C1709       C  0.68981994  0.45562091  0.35811665     1.11800
O1710       O  0.73572221  0.08469401  0.15073368    -0.96400
Zr1711     Zr  0.71331974  0.05346440  0.21208823     1.88900
O1712       O  0.64816603  0.49715315  0.22495060    -0.73100
O1713       O  0.72211928  0.05190838  0.35788974    -0.52300
O1714       O  0.70783710  0.08688556  0.27892482    -0.97000
O1715       O  0.68549665  0.10545534  0.19667559    -0.54200
O1716       O  0.66077547  0.04601841  0.18935512    -0.73600
C1717       C  0.64167803  0.02348378  0.20056400     0.98800
O1718       O  0.65592877  0.42026350  0.26098269    -0.62400
O1719       O  0.77558594  0.43974993  0.10289297    -0.57200
O1720       O  0.68226075  0.42773296  0.18126627    -0.93900
O1721       O  0.70668809  0.44430509  0.11866144    -0.92300
O1722       O  0.80909495  0.40231413  0.18943251    -0.92700
O1723       O  0.75544528  0.38030718  0.23681791    -0.91400
C1724       C  0.68786397  0.42563131  0.13977216     1.17600
H1725       H  0.80832717  0.46550382  0.16803262     0.33600
H1726       H  0.73430955  0.43685772  0.30786716     0.44400
H1727       H  0.68649733  0.50036724  0.16061021     0.37900
H1728       H  0.76263323  0.07041903  0.26833593     0.34400
H1729       H  0.80857340  0.40556285  0.32468983     0.26200
H1730       H  0.72169561  0.04317848  0.38861011     0.32100
H1731       H  0.68703046  0.08203097  0.28953695     0.38100
H1732       H  0.83031116  0.41042686  0.19060550     0.32500
H1733       H  0.76290764  0.43410827  0.07692219     0.31400
H1734       H  0.73394890  0.48552363  0.05049387     0.33100
H1735       H  0.66750235  0.10526898  0.21625058     0.32000
H1736       H  0.73492636  0.38402243  0.24928659     0.36000
H1737       H  0.63933432  0.42321912  0.23921357     0.28800
H1738       H  0.85549799  0.06585650  0.21810810     0.33000
H1739       H  0.72321072  0.07866605  0.12471508     0.35900
H1740       H  0.79305312  0.45219055  0.09037044     0.28500
H1741       H  0.66563329  0.39856110  0.25318475     0.41300
H1742       H  0.78984743  0.97564541  0.37472991     0.31400
H1743       H  0.77812453  0.42142282  0.33962193     0.39000
H1744       H  0.67701678  0.10272698  0.16653965     0.30900
H1745       H  0.73628338  0.07123596  0.35894897     0.30900
H1746       H  0.82823148  0.09040798  0.20845039     0.31200
C1747       C  0.82317628  0.08961868  0.34551895     0.03300
C1748       C  0.82643491  0.11938884  0.32163186    -0.12900
C1749       C  0.82778749  0.15006520  0.34345031     0.00800
C1750       C  0.83320440  0.15063783  0.38893474    -0.11400
C1751       C  0.83278963  0.12036634  0.41403072     0.03300
C1752       C  0.82574929  0.09010232  0.39160615    -0.10800
H1753       H  0.82202943  0.11925055  0.28631739     0.08900
H1754       H  0.83653169  0.17504274  0.40375504     0.06400
H1755       H  0.82090328  0.06704546  0.40930423     0.06300
C1756       C  0.84884439  0.08986545  0.03326106     0.03300
C1757       C  0.84470374  0.09094521  0.48621050    -0.12900
C1758       C  0.83779179  0.12054152  0.46319054     0.00800
C1759       C  0.83576646  0.15033049  0.48722080    -0.11400
C1760       C  0.84420888  0.15279679  0.03290301     0.03300
C1761       C  0.84933897  0.12162199  0.05668963    -0.10800
H1762       H  0.84656836  0.06783202  0.46794281     0.08900
H1763       H  0.82772400  0.17284348  0.47118578     0.06400
H1764       H  0.85337913  0.12202926  0.09198776     0.06300
N1765       N  0.59873479  0.18176165  0.15811728    -0.03300
C1766       C  0.57021809  0.19537488  0.15004084    -0.00700
C1767       C  0.56445907  0.22178509  0.17877052    -0.23600
C1768       C  0.59124595  0.23066811  0.19667388    -0.23800
C1769       C  0.61227836  0.20744507  0.18235462    -0.00800
H1770       H  0.54442727  0.23758946  0.17990706     0.13000
H1771       H  0.59507957  0.25244092  0.21744863     0.13000
N1772       N  0.89870816  0.30477381  0.30134103    -0.03300
C1773       C  0.92726926  0.29146357  0.30921475    -0.00700
C1774       C  0.93456633  0.26812861  0.27655373    -0.23600
C1775       C  0.90816428  0.25857689  0.25815578    -0.23800
C1776       C  0.88626315  0.27937609  0.27561517    -0.00800
H1777       H  0.95523291  0.25349856  0.27342444     0.13000
H1778       H  0.90516326  0.23799299  0.23511734     0.13000
Zr1779     Zr  0.55185478  0.21200181  0.49243082     2.17500
O1780       O  0.58770757  0.16738789  0.01210170    -0.51200
O1781       O  0.59556876  0.24621954  0.46854294    -0.74400
O1782       O  0.56678002  0.17900572  0.42924189    -0.81200
O1783       O  0.52731583  0.21230984  0.10881071    -0.82900
O1784       O  0.53997172  0.19420410  0.36807397    -0.78500
O1785       O  0.56945177  0.20019476  0.06912901    -0.90200
O1786       O  0.58525937  0.29921787  0.44477712    -0.76100
O1787       O  0.54233667  0.25058010  0.43400745    -0.85600
O1788       O  0.54203040  0.26479785  0.52607916    -0.85300
O1789       O  0.00859430  0.18933654  0.45229105    -0.72100
O1790       O  0.50737295  0.20112586  0.03671248    -0.84200
Zr1791     Zr  0.94423682  0.27352836  0.46855885     2.26400
Zr1792     Zr  0.99982967  0.23007264  0.39417993     2.06300
Zr1793     Zr  0.49756522  0.25476819  0.06856332     2.10000
Zr1794     Zr  0.53206548  0.30345508  0.46682470     1.78800
O1795       O  0.47544157  0.24156721  0.14042714    -0.93000
O1796       O  0.53806767  0.33327912  0.39601045    -0.40800
O1797       O  0.98729840  0.29369545  0.51033793    -0.77400
O1798       O  0.98935040  0.28365796  0.42642230    -0.96100
O1799       O  0.95404671  0.22058696  0.43558217    -0.89400
O1800       O  0.95337541  0.23596485  0.02926816    -0.92300
C1801       C  0.60357236  0.27454538  0.45072870     1.01500
C1802       C  0.55477296  0.20118084  0.10602567     1.14400
C1803       C  0.56009650  0.17658971  0.38810810     1.05200
O1804       O  0.02508079  0.25398452  0.32963992    -0.94400
O1805       O  0.96497249  0.26352863  0.35042378    -0.90200
O1806       O  0.92828276  0.28845716  0.39122966    -0.83300
C1807       C  0.94080712  0.28160728  0.35359416     1.11800
O1808       O  0.98536974  0.15215734  0.05893047    -0.96400
Zr1809     Zr  0.96348038  0.18283779  0.99675623     1.88900
O1810       O  0.89914161  0.23968878  0.98635186    -0.73100
O1811       O  0.97481937  0.18822910  0.34803806    -0.52300
O1812       O  0.95941976  0.14960674  0.42912346    -0.97000
O1813       O  0.93492954  0.13092102  0.00936397    -0.54200
O1814       O  0.91093187  0.19033386  0.01967165    -0.73600
C1815       C  0.89186901  0.21296180  0.00840191     0.98800
O1816       O  0.90967548  0.31979899  0.45111029    -0.62400
O1817       O  0.52856341  0.29665195  0.10624392    -0.57200
O1818       O  0.93239875  0.30829910  0.03121003    -0.93900
O1819       O  0.95799263  0.29283183  0.09344017    -0.92300
O1820       O  0.55926518  0.33484317  0.52352733    -0.92700
O1821       O  0.50477199  0.35635335  0.47539017    -0.91400
C1822       C  0.93858621  0.31095151  0.07252274     1.17600
H1823       H  0.55940451  0.27140080  0.04349445     0.33600
H1824       H  0.98502184  0.30099286  0.40493447     0.44400
H1825       H  0.93727748  0.23623590  0.05085886     0.37900
H1826       H  0.01335351  0.16745074  0.44027744     0.34400
H1827       H  0.55928321  0.32992395  0.38631802     0.26200
H1828       H  0.97889793  0.19574164  0.31733833     0.32100
H1829       H  0.93916183  0.15505181  0.91742172     0.38100
H1830       H  0.58080120  0.32795902  0.52104400     0.32500
H1831       H  0.51435441  0.30865674  0.12610619     0.31400
H1832       H  0.48825998  0.25361427  0.16211160     0.33100
H1833       H  0.91687189  0.13222159  0.98997159     0.32000
H1834       H  0.98540234  0.35329240  0.46612196     0.36000
H1835       H  0.89305229  0.31847001  0.47307818     0.28800
H1836       H  0.60505417  0.16983281  0.99150546     0.33000
H1837       H  0.97133637  0.15648535  0.08388414     0.35900
H1838       H  0.54176666  0.28348033  0.12637967     0.28500
H1839       H  0.92097312  0.34056776  0.45861872     0.41300
H1840       H  0.54307288  0.26549560  0.34272533     0.31400
H1841       H  0.52618067  0.32085808  0.37366079     0.39000
H1842       H  0.92657858  0.13255123  0.03973011     0.30900
H1843       H  0.98701483  0.16739979  0.35150786     0.30900
H1844       H  0.57758164  0.14622256  0.00325513     0.31200
C1845       C  0.57575835  0.08719161  0.36653939     0.03300
C1846       C  0.57481354  0.11785435  0.38842566    -0.12900
C1847       C  0.57296655  0.14780627  0.36464959     0.00800
C1848       C  0.57606430  0.14733597  0.31864652    -0.11400
C1849       C  0.58254241  0.11685185  0.29628335     0.03300
C1850       C  0.58166776  0.08651193  0.32119219    -0.10800
H1851       H  0.56991879  0.11810543  0.42360299     0.08900
H1852       H  0.57210421  0.17062934  0.30095876     0.06400
H1853       H  0.58456740  0.06203452  0.30636473     0.06300
C1854       C  0.59929806  0.14770905  0.17839760     0.03300
C1855       C  0.59934695  0.11608745  0.15466456    -0.12900
C1856       C  0.59444844  0.08482335  0.17826675     0.00800
C1857       C  0.58590822  0.08709049  0.22295794    -0.11400
C1858       C  0.58833372  0.11664920  0.24734061     0.03300
C1859       C  0.59629168  0.14609249  0.22484147    -0.10800
H1860       H  0.60283969  0.11585707  0.11923780     0.08900
H1861       H  0.57744549  0.06467116  0.23863019     0.06400
H1862       H  0.59894790  0.16889529  0.24352862     0.06300
N1863       N  0.59586832  0.05045701  0.15956030    -0.03300
C1864       C  0.56830817  0.03511363  0.15180216    -0.00700
C1865       C  0.56186527  0.51034503  0.18425154    -0.23600
C1866       C  0.58827634  0.50355952  0.20453216    -0.23800
C1867       C  0.60941966  0.02650755  0.18680405    -0.00800
H1868       H  0.54240923  0.49373894  0.18595559     0.13000
H1869       H  0.59238550  0.48290942  0.22728911     0.13000
N1870       N  0.89980750  0.43615355  0.30163746    -0.03300
C1871       C  0.92732008  0.45163968  0.31001582    -0.00700
C1872       C  0.93135611  0.47972982  0.28337010    -0.23600
C1873       C  0.90446491  0.48629639  0.26418378    -0.23800
C1874       C  0.88506408  0.46082004  0.27683470    -0.00800
H1875       H  0.95117793  0.99654267  0.28332781     0.13000
H1876       H  0.90036777  0.00791448  0.24377427     0.13000
Zr1877     Zr  0.94425772  0.46474122  0.46678003     2.17500
O1878       O  0.90636436  0.42389634  0.44315629    -0.51200
O1879       O  0.90114154  0.49932621  0.99399737    -0.74400
O1880       O  0.92543539  0.42995608  0.02713750    -0.81200
O1881       O  0.97104222  0.96558871  0.35139520    -0.82900
O1882       O  0.95100505  0.44512246  0.08927766    -0.78500
O1883       O  0.92782869  0.45458044  0.39001816    -0.90200
O1884       O  0.91353334  0.05202365  0.01907684    -0.76100
O1885       O  0.95309375  0.50151529  0.02531262    -0.85600
O1886       O  0.95510697  0.01794362  0.43360602    -0.85300
O1887       O  0.98621132  0.43925816  0.50692316    -0.72100
O1888       O  0.98902570  0.45333079  0.42356589    -0.84200
Zr1889     Zr  0.55251926  0.02153334  0.49266874     2.26400
Zr1890     Zr  0.49527715  0.47775643  0.06582080     2.06300
Zr1891     Zr  0.00028844  0.00789576  0.39179113     2.10000
Zr1892     Zr  0.96593670  0.05554314  0.99380114     1.78800
O1893       O  0.01874841  0.99727839  0.31714008    -0.93000
O1894       O  0.95819743  0.08296692  0.06530603    -0.40800
O1895       O  0.01114761  0.04603267  0.45121124    -0.77400
O1896       O  0.50710748  0.03230212  0.03469433    -0.96100
O1897       O  0.54081063  0.46819936  0.52554980    -0.89400
O1898       O  0.54287758  0.98556863  0.43115303    -0.92300
C1899       C  0.89468879  0.02795907  0.01305241     1.01500
C1900       C  0.94286846  0.45563459  0.35355408     1.14400
C1901       C  0.93079459  0.42803139  0.06870751     1.05200
O1902       O  0.47483015  0.49746760  0.13606034    -0.94400
O1903       O  0.53002642  0.50952234  0.11089892    -0.90200
O1904       O  0.56736150  0.03468700  0.07064500    -0.83300
C1905       C  0.55442760  0.02732479  0.10775432     1.11800
O1906       O  0.50828995  0.40002422  0.40438627    -0.96400
Zr1907     Zr  0.53134166  0.43225336  0.46402974     1.88900
O1908       O  0.59766831  0.98788940  0.47406140    -0.73100
O1909       O  0.51772397  0.43138982  0.10747021    -0.52300
O1910       O  0.53450464  0.39853338  0.53131039    -0.97000
O1911       O  0.56072646  0.38078797  0.45212758    -0.54200
O1912       O  0.58397995  0.43922878  0.44098710    -0.73600
C1913       C  0.60376189  0.46102436  0.45208107     0.98800
O1914       O  0.58813871  0.06584668  0.01403620    -0.62400
O1915       O  0.97190048  0.05391755  0.35764365    -0.57200
O1916       O  0.56648741  0.05727655  0.43171514    -0.93900
O1917       O  0.54398276  0.03953035  0.36827647    -0.92300
O1918       O  0.93730480  0.08651005  0.43780316    -0.92700
O1919       O  0.99221591  0.10932481  0.98883259    -0.91400
C1920       C  0.56228262  0.05848356  0.38984046     1.17600
H1921       H  0.93826520  0.02518306  0.41542886     0.33600
H1922       H  0.51166327  0.04912673  0.05659853     0.44400
H1923       H  0.55902785  0.98553946  0.40960296     0.37900
H1924       H  0.97979242  0.41678249  0.01801081     0.34400
H1925       H  0.95059127  0.06502142  0.08519462     0.26200
H1926       H  0.51825377  0.43949121  0.13839754     0.32100
H1927       H  0.55511012  0.40279881  0.54305330     0.38100
H1928       H  0.91664434  0.08045964  0.94080279     0.32500
H1929       H  0.98703769  0.06626328  0.33961741     0.31400
H1930       H  0.00769793  0.01349603  0.29806217     0.33100
H1931       H  0.57857767  0.38209834  0.47198368     0.32000
H1932       H  0.01276708  0.10487298  0.00079930     0.36000
H1933       H  0.60552036  0.06373025  0.99345937     0.28800
H1934       H  0.88834273  0.42817481  0.46188759     0.33000
H1935       H  0.52172211  0.40382514  0.37857707     0.35900
H1936       H  0.95851399  0.04292661  0.33576110     0.28500
H1937       H  0.57807210  0.08726970  0.00575484     0.41300
H1938       H  0.94953238  0.50750165  0.12207291     0.31400
H1939       H  0.97850871  0.08846613  0.07710925     0.39000
H1940       H  0.56934679  0.38260273  0.42199037     0.30900
H1941       H  0.50205179  0.41351964  0.10751155     0.30900
H1942       H  0.91416790  0.40166807  0.45293306     0.31200
C1943       C  0.90099306  0.40214370  0.28204403     0.03300
C1944       C  0.89742989  0.37052158  0.30544659    -0.12900
C1945       C  0.89780131  0.33905477  0.28138315     0.00800
C1946       C  0.90034886  0.34119100  0.23485400    -0.11400
C1947       C  0.90706273  0.37099132  0.21239745     0.03300
C1948       C  0.90822260  0.40072281  0.23677373    -0.10800
H1949       H  0.89460085  0.37040542  0.34100610     0.08900
H1950       H  0.89806272  0.31861061  0.21563832     0.06400
H1951       H  0.91496990  0.42383739  0.22086288     0.05900
C1952       C  0.91730257  0.39957806  0.09232018     0.03300
C1953       C  0.91998647  0.36872441  0.07118229    -0.12900
C1954       C  0.92465664  0.33949343  0.09569490     0.00800
C1955       C  0.92160696  0.34044600  0.14176247    -0.11400
C1956       C  0.91290360  0.37063297  0.16342146     0.03300
C1957       C  0.91178315  0.40057227  0.13782265    -0.10800
H1958       H  0.92442525  0.36839129  0.03587871     0.08900
H1959       H  0.92716665  0.31785245  0.16012780     0.06400
H1960       H  0.90786743  0.42499865  0.15234712     0.06300
N1961       N  0.65029639  0.30114180  0.91046386    -0.03300
C1962       C  0.67780927  0.28582887  0.90157197    -0.00700
C1963       C  0.68248835  0.25814323  0.92869032    -0.23600
C1964       C  0.65585575  0.25155541  0.94879567    -0.23800
C1965       C  0.63601748  0.27664105  0.93596403    -0.00800
H1966       H  0.70138470  0.24069696  0.92774365     0.13000
H1967       H  0.65104748  0.22965364  0.96908001     0.13000
N1968       N  0.84587789  0.18724981  0.55027886    -0.03300
C1969       C  0.81855780  0.20305535  0.55901518    -0.00700
C1970       C  0.81260790  0.22822018  0.52808256    -0.23600
C1971       C  0.83880022  0.23436547  0.50693046    -0.23800
C1972       C  0.85927123  0.21093230  0.52244965    -0.00800
H1973       H  0.79340622  0.24529265  0.52708921     0.13000
H1974       H  0.84292604  0.25507938  0.48429944     0.13000
Zr1975     Zr  0.69320727  0.27241987  0.74467832     2.17500
O1976       O  0.65554782  0.31426527  0.76695314    -0.51200
O1977       O  0.65064540  0.23758978  0.71771257    -0.74400
O1978       O  0.67614431  0.30668982  0.68388976    -0.81200
O1979       O  0.72078282  0.27281225  0.85896608    -0.82900
O1980       O  0.70082364  0.29020384  0.62160572    -0.78500
O1981       O  0.67697052  0.28172862  0.82175012    -0.90200
O1982       O  0.66266525  0.18540267  0.69296021    -0.76100
O1983       O  0.70319664  0.23494806  0.68575012    -0.85600
O1984       O  0.70432593  0.21938216  0.77715105    -0.85300
O1985       O  0.73540901  0.29789270  0.70519248    -0.72100
O1986       O  0.73789970  0.28333581  0.78841279    -0.84200
Zr1987     Zr  0.80231891  0.21508352  0.71841507     2.26400
Zr1988     Zr  0.74475098  0.25838840  0.64623744     2.06300
Zr1989     Zr  0.74935864  0.22947250  0.81916699     2.10000
Zr1990     Zr  0.71519362  0.18192438  0.71735119     1.78800
O1991       O  0.76614988  0.23898252  0.89491586    -0.93000
O1992       O  0.71104312  0.15322916  0.64580830    -0.40800
O1993       O  0.76040968  0.19132411  0.75979410    -0.77400
O1994       O  0.75709535  0.20449040  0.67686133    -0.96100
O1995       O  0.79078130  0.26832500  0.68685096    -0.89400
O1996       O  0.79223606  0.25091386  0.78009781    -0.92300
C1997       C  0.64372974  0.20944299  0.69861972     1.01500
C1998       C  0.69272713  0.28183766  0.85758597     1.14400
C1999       C  0.68125774  0.30817874  0.64225806     1.05200
O2000       O  0.72228626  0.23638039  0.57868493    -0.94400
O2001       O  0.77954694  0.22676876  0.60077965    -0.90200
O2002       O  0.81790336  0.20356260  0.64043913    -0.83300
C2003       C  0.80457463  0.21024639  0.60335373     1.11800
O2004       O  0.75788493  0.33696812  0.80768918    -0.96400
Zr2005     Zr  0.78099446  0.30420685  0.74840821     1.88900
O2006       O  0.84730574  0.24799536  0.73860843    -0.73100
O2007       O  0.76776324  0.30373136  0.60345049    -0.52300
O2008       O  0.78532047  0.33763768  0.68104227    -0.97000
O2009       O  0.80951627  0.35573615  0.76343833    -0.54200
O2010       O  0.83391060  0.29712115  0.77082723    -0.73600
C2011       C  0.85366755  0.27496197  0.76048589     0.98800
O2012       O  0.83763436  0.17085556  0.69624748    -0.62400
O2013       O  0.71975451  0.18402820  0.85223868    -0.57200
O2014       O  0.81627468  0.17931075  0.77925155    -0.93900
O2015       O  0.79368858  0.19746148  0.84248195    -0.92300
O2016       O  0.68715879  0.15071929  0.77373054    -0.92700
O2017       O  0.74060203  0.12784252  0.72562189    -0.91400
C2018       C  0.81207751  0.17838574  0.82113324     1.17600
H2019       H  0.68734170  0.21229475  0.79513124     0.33600
H2020       H  0.76180272  0.18776505  0.65483889     0.44400
H2021       H  0.80831319  0.25108679  0.80173439     0.37900
H2022       H  0.73004328  0.31982493  0.69366221     0.34400
H2023       H  0.68929405  0.15265260  0.63783877     0.26200
H2024       H  0.76666631  0.29596087  0.57240612     0.32100
H2025       H  0.80622605  0.33347237  0.67033672     0.38100
H2026       H  0.66560551  0.15719218  0.77008087     0.32500
H2027       H  0.73465592  0.17034761  0.86900154     0.31400
H2028       H  0.75720493  0.22036476  0.91245571     0.33100
H2029       H  0.82733603  0.35559104  0.74343301     0.32000
H2030       H  0.76134451  0.13155074  0.71397239     0.36000
H2031       H  0.85500557  0.17228447  0.71693416     0.28800
H2032       H  0.63738215  0.30972317  0.74865130     0.33000
H2033       H  0.77025362  0.33179779  0.83422718     0.35900
H2034       H  0.70717697  0.19504314  0.87516294     0.28500
H2035       H  0.82728394  0.14951038  0.70386387     0.41300
H2036       H  0.70331254  0.22529526  0.58843858     0.31400
H2037       H  0.71973516  0.16872725  0.62351971     0.39000
H2038       H  0.81820559  0.35293977  0.79341512     0.30900
H2039       H  0.75305106  0.32259189  0.60500008     0.30900
H2040       H  0.66333359  0.33623931  0.75628895     0.31200
C2041       C  0.65160998  0.33511596  0.92990616     0.03300
C2042       C  0.65932349  0.33661137  0.97496374    -0.12900
C2043       C  0.65717976  0.36610825  0.99955952     0.00800
C2044       C  0.64962498  0.39577861  0.97730582    -0.11400
C2045       C  0.64736544  0.39799700  0.93069084     0.03300
C2046       C  0.64749997  0.36662079  0.90656416    -0.10800
H2047       H  0.66687829  0.31368692  0.99064372     0.08900
H2048       H  0.64660368  0.41815664  0.99674971     0.06400
H2049       H  0.64463219  0.36672221  0.87101351     0.06300
C2050       C  0.66836101  0.33701892  0.61869165     0.03300
C2051       C  0.66255915  0.33621297  0.57330662    -0.12900
C2052       C  0.66334621  0.36627052  0.54793842     0.00800
C2053       C  0.67193092  0.39642821  0.56959741    -0.11400
C2054       C  0.67542850  0.39717807  0.61557779     0.03300
C2055       C  0.67131839  0.36778814  0.63995235    -0.10800
H2056       H  0.65848203  0.31186150  0.55869214     0.08900
H2057       H  0.67699056  0.41915857  0.55124031     0.06400
H2058       H  0.67604339  0.36800128  0.67517561     0.06300
N2059       N  0.64830806  0.43221673  0.91063602    -0.03300
C2060       C  0.67695269  0.44508384  0.90257507    -0.00700
C2061       C  0.68468747  0.46766268  0.93591000    -0.23600
C2062       C  0.65840066  0.47765717  0.95460186    -0.23800
C2063       C  0.63615893  0.45768476  0.93658799    -0.00800
H2064       H  0.70505864  0.98205389  0.93891315     0.13000
H2065       H  0.65488189  0.99840465  0.97666984     0.13000
N2066       N  0.84851476  0.05577058  0.55336712    -0.03300
C2067       C  0.82046199  0.04119754  0.56186418    -0.00700
C2068       C  0.81535142  0.51399565  0.53425177    -0.23600
C2069       C  0.84239478  0.50547792  0.51697037    -0.23800
C2070       C  0.86261916  0.03036843  0.52926748    -0.00800
H2071       H  0.79574501  0.49757702  0.53357329     0.13000
H2072       H  0.84681280  0.48338330  0.49699858     0.13000
Zr2073     Zr  0.80147676  0.02517662  0.71934439     2.17500
O2074       O  0.83696684  0.06976595  0.69940334    -0.51200
O2075       O  0.84539632  0.99138281  0.74342317    -0.74400
O2076       O  0.81633561  0.05815297  0.78243141    -0.81200
O2077       O  0.77716957  0.52457795  0.60265919    -0.82900
O2078       O  0.78963202  0.04299257  0.84367940    -0.78500
O2079       O  0.81943897  0.03721025  0.64296249    -0.90200
O2080       O  0.83480163  0.43774280  0.76584029    -0.76100
O2081       O  0.79211429  0.98691882  0.77829572    -0.85600
O2082       O  0.79148263  0.47264144  0.68559572    -0.85300
O2083       O  0.75805254  0.04793888  0.75892344    -0.72100
O2084       O  0.75706230  0.03541788  0.67488466    -0.84200
Zr2085     Zr  0.69341329  0.46367285  0.74296495     2.26400
Zr2086     Zr  0.74894888  0.00753998  0.81756075     2.06300
Zr2087     Zr  0.74676434  0.48265297  0.64274813     2.10000
Zr2088     Zr  0.78144814  0.43411489  0.74482603     1.78800
O2089       O  0.72362583  0.49943239  0.57280976    -0.93000
O2090       O  0.78721574  0.40631213  0.81692317    -0.40800
O2091       O  0.73663086  0.44323432  0.70146653    -0.77400
O2092       O  0.73852416  0.45401996  0.78556280    -0.96100
O2093       O  0.70331308  0.01639156  0.77553894    -0.89400
O2094       O  0.70269936  0.50099719  0.68216070    -0.92300
C2095       C  0.85305821  0.46247226  0.76055124     1.01500
C2096       C  0.80506638  0.03537608  0.60588856     1.14400
C2097       C  0.80972408  0.06056441  0.82358160     1.05200
O2098       O  0.77264538  0.98362129  0.88339402    -0.94400
O2099       O  0.71401280  0.97396858  0.86121743    -0.90200
O2100       O  0.67834655  0.44735783  0.82035741    -0.83300
C2101       C  0.69012714  0.45550794  0.85805346     1.11800
O2102       O  0.73456885  0.08593200  0.65390774    -0.96400
Zr2103     Zr  0.71293981  0.05348750  0.71480112     1.88900
O2104       O  0.64807592  0.49747426  0.72594890    -0.73100
O2105       O  0.72388423  0.04936674  0.86388046    -0.52300
O2106       O  0.70871601  0.08576966  0.78292194    -0.97000
O2107       O  0.68406320  0.10518141  0.70206103    -0.54200
O2108       O  0.66043804  0.04568915  0.69177458    -0.73600
C2109       C  0.64132549  0.02305656  0.70262367     0.98800
O2110       O  0.65605231  0.41996033  0.75914701    -0.62400
O2111       O  0.77683021  0.44084102  0.60308727    -0.57200
O2112       O  0.68326690  0.42799119  0.68025584    -0.93900
O2113       O  0.70742455  0.44488083  0.61755646    -0.92300
O2114       O  0.80830935  0.40183813  0.68853686    -0.92700
O2115       O  0.75515919  0.38064827  0.73732994    -0.91400
C2116       C  0.68892516  0.42589680  0.63874032     1.17600
H2117       H  0.80862523  0.46593114  0.66771076     0.33600
H2118       H  0.73449619  0.43682583  0.80732298     0.44400
H2119       H  0.68658961  0.50077515  0.66060319     0.37900
H2120       H  0.76263247  0.06994300  0.77063542     0.34400
H2121       H  0.80913061  0.40603453  0.82383114     0.26200
H2122       H  0.72794640  0.04174354  0.89454946     0.32100
H2123       H  0.68795045  0.08122879  0.79391898     0.38100
H2124       H  0.82945481  0.41022396  0.68855858     0.32500
H2125       H  0.76439728  0.43473148  0.57704937     0.31400
H2126       H  0.73262061  0.48424743  0.55039554     0.33100
H2127       H  0.66625354  0.10396358  0.72193065     0.32000
H2128       H  0.73448713  0.38484893  0.74895899     0.36000
H2129       H  0.64001552  0.42240932  0.73640892     0.28800
H2130       H  0.85502780  0.06614031  0.71834422     0.33000
H2131       H  0.72149387  0.08077090  0.62815810     0.35900
H2132       H  0.79416318  0.45352508  0.59060260     0.28500
H2133       H  0.66624848  0.39832859  0.75231866     0.41300
H2134       H  0.79331272  0.97701053  0.87383357     0.31400
H2135       H  0.77881483  0.42213455  0.83900263     0.39000
H2136       H  0.67535043  0.10304826  0.67198981     0.30900
H2137       H  0.73608802  0.07015427  0.86055654     0.30900
H2138       H  0.82757554  0.09076182  0.71048000     0.31200
C2139       C  0.82270018  0.08927680  0.84699714     0.03300
C2140       C  0.82501356  0.11910228  0.82303920    -0.12900
C2141       C  0.82567185  0.14984854  0.84474473     0.00800
C2142       C  0.83120372  0.15068458  0.89018334    -0.11400
C2143       C  0.83183776  0.12042491  0.91528565     0.03300
C2144       C  0.82540042  0.08992082  0.89303071    -0.10800
H2145       H  0.82051810  0.11874364  0.78776002     0.08900
H2146       H  0.83395173  0.17521003  0.90490563     0.06400
H2147       H  0.82113470  0.06675235  0.91080141     0.06300
C2148       C  0.84823156  0.08969704  0.53262491     0.03300
C2149       C  0.84523181  0.09124732  0.98692417    -0.12900
C2150       C  0.83745414  0.12070459  0.96425055     0.00800
C2151       C  0.83528591  0.15038970  0.98841794    -0.11400
C2152       C  0.84411633  0.15274136  0.53197368     0.03300
C2153       C  0.84886591  0.12153636  0.55588700    -0.10800
H2154       H  0.84750871  0.06826775  0.96849754     0.08900
H2155       H  0.82689792  0.17286748  0.97268726     0.06400
H2156       H  0.85273798  0.12198361  0.59122043     0.06300
N2157       N  0.59849155  0.18088661  0.65757463    -0.03300
C2158       C  0.57000081  0.19448131  0.64948223    -0.00700
C2159       C  0.56410704  0.22078275  0.67833916    -0.23600
C2160       C  0.59084728  0.22971303  0.69626405    -0.23800
C2161       C  0.61192463  0.20661254  0.68175935    -0.00800
H2162       H  0.54407148  0.23660554  0.67939704     0.13000
H2163       H  0.59461889  0.25140561  0.71720916     0.13000
N2164       N  0.89825933  0.30403772  0.80128336    -0.03300
C2165       C  0.92677906  0.29051424  0.80918587    -0.00700
C2166       C  0.93392144  0.26719425  0.77647351    -0.23600
C2167       C  0.90742887  0.25782820  0.75811320    -0.23800
C2168       C  0.88561012  0.27866925  0.77574232    -0.00800
H2169       H  0.95452247  0.25246214  0.77328387     0.13000
H2170       H  0.90430179  0.23727432  0.73506803     0.13000
Zr2171     Zr  0.55187150  0.21183708  0.99242504     2.17500
O2172       O  0.58771208  0.16753763  0.51215792    -0.51200
O2173       O  0.59561796  0.24614430  0.96854031    -0.74400
O2174       O  0.56702950  0.17881169  0.92929233    -0.81200
O2175       O  0.52736458  0.21164255  0.60815328    -0.82900
O2176       O  0.54010036  0.19373160  0.86815281    -0.78500
O2177       O  0.56970992  0.20006200  0.56873553    -0.90200
O2178       O  0.58532863  0.29924498  0.94505817    -0.76100
O2179       O  0.54230316  0.25030407  0.93383346    -0.85600
O2180       O  0.54222678  0.26473512  0.02569993    -0.85300
O2181       O  0.00887261  0.18871329  0.95315074    -0.72100
O2182       O  0.50738032  0.20095947  0.53654842    -0.84200
Zr2183     Zr  0.94427144  0.27323611  0.96847774     2.26400
Zr2184     Zr  0.99980506  0.22902152  0.89450508     2.06300
Zr2185     Zr  0.49731985  0.25432839  0.56884436     2.10000
Zr2186     Zr  0.53201787  0.30327534  0.96652108     1.78800
O2187       O  0.47008126  0.23665974  0.63510114    -0.93000
O2188       O  0.53713871  0.33196077  0.89492960    -0.40800
O2189       O  0.98716850  0.29384339  0.01025239    -0.77400
O2190       O  0.98937058  0.28283539  0.92594287    -0.96100
O2191       O  0.95405558  0.22006122  0.93609645    -0.89400
O2192       O  0.95343941  0.23606640  0.52915022    -0.92300
C2193       C  0.60365426  0.27456676  0.95097587     1.01500
C2194       C  0.55484579  0.20063765  0.60544803     1.14400
C2195       C  0.56038083  0.17631393  0.88814867     1.05200
O2196       O  0.02414823  0.25157960  0.82840152    -0.94400
O2197       O  0.96424007  0.26188670  0.85059952    -0.90200
O2198       O  0.92818946  0.28807436  0.89124809    -0.83300
C2199       C  0.94035513  0.28052405  0.85361691     1.11800
O2200       O  0.98642451  0.15264105  0.55749106    -0.96400
Zr2201     Zr  0.96336062  0.18317644  0.49611288     1.88900
O2202       O  0.89866675  0.24059825  0.48633147    -0.73100
O2203       O  0.97507712  0.18592065  0.85006918    -0.52300
O2204       O  0.95967902  0.15002888  0.92908752    -0.97000
O2205       O  0.93526578  0.13152255  0.51206908    -0.54200
O2206       O  0.91049107  0.19064953  0.51804995    -0.73600
C2207       C  0.89139956  0.21350279  0.50761245     0.98800
O2208       O  0.90918325  0.31850332  0.94887987    -0.62400
O2209       O  0.52602603  0.29363293  0.61443584    -0.57200
O2210       O  0.93343466  0.30833574  0.53167279    -0.93900
O2211       O  0.95815203  0.29196581  0.59422197    -0.92300
O2212       O  0.55910079  0.33523978  0.02280924    -0.92700
O2213       O  0.50554155  0.35674098  0.97454059    -0.91400
C2214       C  0.93935114  0.31065862  0.57304833     1.17600
H2215       H  0.55904234  0.27151312  0.54415192     0.33600
H2216       H  0.98518880  0.29989314  0.90402458     0.44400
H2217       H  0.93726737  0.23609747  0.55063894     0.37900
H2218       H  0.01373274  0.16678265  0.94136125     0.34400
H2219       H  0.55895499  0.33161419  0.88736932     0.26200
H2220       H  0.97602055  0.19469653  0.81939809     0.32100
H2221       H  0.93862183  0.15393689  0.41806324     0.38100
H2222       H  0.58064702  0.32833818  0.02064555     0.32500
H2223       H  0.51503442  0.29423181  0.64299924     0.31400
H2224       H  0.48406218  0.24134778  0.65995229     0.33100
H2225       H  0.91715672  0.13183793  0.49272006     0.32000
H2226       H  0.98441465  0.35171040  0.96073713     0.36000
H2227       H  0.89163734  0.31594520  0.96908053     0.28800
H2228       H  0.60582076  0.17145508  0.49343940     0.33000
H2229       H  0.97331755  0.15766529  0.58328671     0.35900
H2230       H  0.54529608  0.28188855  0.62130395     0.28500
H2231       H  0.91930442  0.33955374  0.95825417     0.41300
H2232       H  0.54482334  0.26033978  0.84049883     0.31400
H2233       H  0.52805445  0.31681409  0.87265222     0.39000
H2234       H  0.92700649  0.13414929  0.54237548     0.30900
H2235       H  0.98918714  0.16646754  0.85025024     0.30900
H2236       H  0.57862849  0.14648243  0.50079761     0.31200
C2237       C  0.57555473  0.08698279  0.86655570     0.03300
C2238       C  0.57546122  0.11768200  0.88843352    -0.12900
C2239       C  0.57342758  0.14760372  0.86462326     0.00800
C2240       C  0.57619090  0.14702726  0.81854544    -0.11400
C2241       C  0.58229799  0.11643852  0.79615806     0.03300
C2242       C  0.58102726  0.08614467  0.82112113    -0.10800
H2243       H  0.57113030  0.11805928  0.92375686     0.08900
H2244       H  0.57223354  0.17031676  0.80085405     0.06400
H2245       H  0.58338219  0.06157546  0.80638903     0.06300
C2246       C  0.59907000  0.14690863  0.67805537     0.03300
C2247       C  0.59916184  0.11520725  0.65449861    -0.12900
C2248       C  0.59439163  0.08401466  0.67832226     0.00800
C2249       C  0.58588865  0.08642932  0.72299419    -0.11400
C2250       C  0.58814673  0.11608608  0.74720394     0.03300
C2251       C  0.59605248  0.14545446  0.72452154    -0.10800
H2252       H  0.60259529  0.11486729  0.61905986     0.08900
H2253       H  0.57750774  0.06401093  0.73871235     0.06400
H2254       H  0.59862166  0.16832633  0.74307252     0.06300
N2255       N  0.59589022  0.04954645  0.65992912    -0.03300
C2256       C  0.56839923  0.03414717  0.65163440    -0.00700
C2257       C  0.56201306  0.50941952  0.68372096    -0.23600
C2258       C  0.58829402  0.50323089  0.70465086    -0.23800
C2259       C  0.60925410  0.02569645  0.68759773    -0.00800
H2260       H  0.54279336  0.49245634  0.68500530     0.13000
H2261       H  0.59249435  0.48260646  0.72741382     0.13000
N2262       N  0.89963184  0.43538573  0.80110819    -0.03300
C2263       C  0.92731062  0.45038036  0.80964979    -0.00700
C2264       C  0.93203406  0.47790001  0.78228280    -0.23600
C2265       C  0.90528660  0.48499074  0.76281663    -0.23800
C2266       C  0.88535306  0.46016590  0.77588150    -0.00800
H2267       H  0.95107295  0.99708228  0.78361397     0.13000
H2268       H  0.90040321  0.00846674  0.74354711     0.13000
Zr2269     Zr  0.94333180  0.46396707  0.96653470     2.17500
O2270       O  0.90599645  0.42259209  0.94241391    -0.51200
O2271       O  0.90169666  0.49951912  0.49377216    -0.74400
O2272       O  0.92707140  0.43009315  0.52723578    -0.81200
O2273       O  0.97071309  0.96604754  0.85168092    -0.82900
O2274       O  0.95134946  0.44659492  0.58980039    -0.78500
O2275       O  0.92689807  0.45455028  0.88957310    -0.90200
O2276       O  0.91337624  0.05210654  0.51874250    -0.76100
O2277       O  0.95376363  0.50240225  0.52559670    -0.85600
O2278       O  0.95531984  0.01809537  0.93395094    -0.85300
O2279       O  0.98535156  0.43867112  0.00661611    -0.72100
O2280       O  0.98812185  0.45267596  0.92312197    -0.84200
Zr2281     Zr  0.55241607  0.02184207  0.99304576     2.26400
Zr2282     Zr  0.49457264  0.47823488  0.56573206     2.06300
Zr2283     Zr  0.00042008  0.00805150  0.89196132     2.10000
Zr2284     Zr  0.96579182  0.05520186  0.49357504     1.78800
O2285       O  0.01984717  0.99505189  0.81848214    -0.93000
O2286       O  0.95892348  0.08318966  0.56478805    -0.40800
O2287       O  0.01122174  0.04626226  0.95135532    -0.77400
O2288       O  0.50704958  0.03193094  0.53399274    -0.96100
O2289       O  0.54142007  0.46848092  0.02508357    -0.89400
O2290       O  0.54266505  0.98553111  0.93202070    -0.92300
C2291       C  0.89450770  0.02810626  0.51248849     1.01500
C2292       C  0.94243009  0.45458045  0.85351319     1.14400
C2293       C  0.93192505  0.42859382  0.56897241     1.05200
O2294       O  0.47270483  0.49833194  0.63478175    -0.94400
O2295       O  0.52914479  0.51025015  0.61095771    -0.90200
O2296       O  0.56747264  0.03431971  0.57034740    -0.83300
C2297       C  0.55459982  0.02657679  0.60736339     1.11800
O2298       O  0.50936199  0.40035771  0.90333512    -0.96400
Zr2299     Zr  0.53185226  0.43282215  0.96327868     1.88900
O2300       O  0.59755309  0.98860637  0.97311042    -0.73100
O2301       O  0.51723946  0.43255665  0.60844807    -0.52300
O2302       O  0.53637213  0.39943598  0.03061188    -0.97000
O2303       O  0.56061158  0.38120163  0.94938822    -0.54200
O2304       O  0.58450870  0.43999293  0.94079968    -0.73600
C2305       C  0.60430675  0.46171480  0.95204808     0.98800
O2306       O  0.58763032  0.06594195  0.51449904    -0.62400
O2307       O  0.97184646  0.05335432  0.85655757    -0.57200
O2308       O  0.56587598  0.05772071  0.93209310    -0.93900
O2309       O  0.54395737  0.03908875  0.86873925    -0.92300
O2310       O  0.93828735  0.08622237  0.93650943    -0.92700
O2311       O  0.99231735  0.10861381  0.48631710    -0.91400
C2312       C  0.56195646  0.05847400  0.89016610     1.17600
H2313       H  0.93846106  0.02520290  0.91572257     0.33600
H2314       H  0.51153653  0.04860034  0.55616003     0.44400
H2315       H  0.55870815  0.98534009  0.91030698     0.37900
H2316       H  0.98088569  0.41735155  0.51850853     0.34400
H2317       H  0.95297615  0.06503254  0.58556320     0.26200
H2318       H  0.51780397  0.44110814  0.63916704     0.32100
H2319       H  0.55694504  0.40440741  0.04200567     0.38100
H2320       H  0.91576774  0.08022386  0.44191165     0.32500
H2321       H  0.98705023  0.06596740  0.83900999     0.31400
H2322       H  0.01233368  0.01348791  0.79920563     0.33100
H2323       H  0.57837642  0.38173885  0.96946806     0.32000
H2324       H  0.01236213  0.10469812  0.50026420     0.36000
H2325       H  0.60491860  0.06466771  0.49364305     0.28800
H2326       H  0.88748234  0.42736116  0.95990753     0.33000
H2327       H  0.52282811  0.40434183  0.87760740     0.35900
H2328       H  0.95899095  0.04205347  0.83427596     0.28500
H2329       H  0.57707407  0.08726762  0.50708773     0.41300
H2330       H  0.95199191  0.51047339  0.62267713     0.31400
H2331       H  0.97928844  0.09015212  0.57489172     0.39000
H2332       H  0.56941142  0.38369871  0.91944414     0.30900
H2333       H  0.50161749  0.41464248  0.60900592     0.30900
H2334       H  0.91343619  0.40058182  0.95348249     0.31200
C2335       C  0.90064461  0.40135631  0.78160539     0.03300
C2336       C  0.89738772  0.36975808  0.80512315    -0.12900
C2337       C  0.89744224  0.33828005  0.78110272     0.00800
C2338       C  0.89961597  0.34042340  0.73443831    -0.11400
C2339       C  0.90632586  0.37029990  0.71193110     0.03300
C2340       C  0.90764447  0.39992137  0.73631960    -0.10800
H2341       H  0.89496400  0.36966985  0.84074407     0.08900
H2342       H  0.89716022  0.31784864  0.71522327     0.06400
H2343       H  0.91451465  0.42296860  0.72040308     0.05900
C2344       C  0.91892720  0.39968618  0.59243308     0.03300
C2345       C  0.92241774  0.36893198  0.57135635    -0.12900
C2346       C  0.92586073  0.33948707  0.59584822     0.00800
C2347       C  0.92167547  0.34017052  0.64163988    -0.11400
C2348       C  0.91266516  0.37025713  0.66308099     0.03300
C2349       C  0.91214951  0.40040733  0.63762236    -0.10800
H2350       H  0.92789526  0.36869856  0.53635474     0.08900
H2351       H  0.92655699  0.31739241  0.66000791     0.06400
H2352       H  0.90761226  0.42474158  0.65202922     0.06300
N2353       N  0.64967704  0.80107794  0.41018822    -0.03300
C2354       C  0.67724332  0.78570377  0.40173568    -0.00700
C2355       C  0.68166192  0.75790253  0.42875240    -0.23600
C2356       C  0.65492535  0.75133677  0.44842925    -0.23800
C2357       C  0.63525413  0.77655847  0.43556011    -0.00800
H2358       H  0.70053260  0.74041065  0.42806978     0.13000
H2359       H  0.64997591  0.72941575  0.46861185     0.13000
N2360       N  0.84658847  0.68706926  0.05197758    -0.03300
C2361       C  0.81922239  0.70291194  0.06034159    -0.00700
C2362       C  0.81364044  0.72840030  0.02974533    -0.23600
C2363       C  0.84005749  0.73478393  0.00950217    -0.23800
C2364       C  0.86026552  0.71102248  0.02483204    -0.00800
H2365       H  0.79452294  0.74558743  0.02863860     0.13000
H2366       H  0.84444584  0.75578750  0.98744327     0.13000
Zr2367     Zr  0.69352502  0.77284284  0.24513854     2.17500
O2368       O  0.65604718  0.81459272  0.26831112    -0.51200
O2369       O  0.65075189  0.73804061  0.21900263    -0.74400
O2370       O  0.67630484  0.80699691  0.18421069    -0.81200
O2371       O  0.72041963  0.77187162  0.36011557    -0.82900
O2372       O  0.69992528  0.78920301  0.12171098    -0.78500
O2373       O  0.67726329  0.78269778  0.32192674    -0.90200
O2374       O  0.66293580  0.68627133  0.19278184    -0.76100
O2375       O  0.70332639  0.73545350  0.18603639    -0.85600
O2376       O  0.70468506  0.71977458  0.27760511    -0.85300
O2377       O  0.73558175  0.79829658  0.20543343    -0.72100
O2378       O  0.73816363  0.78357947  0.28914652    -0.84200
Zr2379     Zr  0.80246896  0.71535616  0.21881505     2.26400
Zr2380     Zr  0.74481870  0.75885182  0.14640143     2.06300
Zr2381     Zr  0.74979163  0.72962125  0.31952016     2.10000
Zr2382     Zr  0.71536212  0.68246033  0.21762104     1.78800
O2383       O  0.76772945  0.73839433  0.39483311    -0.93000
O2384       O  0.70873674  0.65371706  0.14680158    -0.40800
O2385       O  0.76061378  0.69151705  0.26005506    -0.77400
O2386       O  0.75719625  0.70494422  0.17690879    -0.96100
O2387       O  0.79079671  0.76861743  0.18725390    -0.89400
O2388       O  0.79259676  0.75119290  0.28051477    -0.92300
C2389       C  0.64387373  0.71009988  0.19937504     1.01500
C2390       C  0.69261264  0.78183448  0.35809801     1.14400
C2391       C  0.68082223  0.80779810  0.14236664     1.05200
O2392       O  0.72333192  0.73747799  0.07780039    -0.94400
O2393       O  0.78046340  0.72738221  0.10192840    -0.90200
O2394       O  0.81816681  0.70287187  0.14152253    -0.83300
C2395       C  0.80515315  0.71019118  0.10449728     1.11800
O2396       O  0.75746275  0.83687623  0.30808681    -0.96400
Zr2397     Zr  0.78106710  0.80446642  0.24887483     1.88900
O2398       O  0.84740682  0.74867671  0.23841730    -0.73100
O2399       O  0.76676157  0.80487988  0.10374239    -0.52300
O2400       O  0.78475999  0.83834561  0.18183624    -0.97000
O2401       O  0.80974539  0.85585422  0.26368120    -0.54200
O2402       O  0.83396883  0.79751282  0.27130397    -0.73600
C2403       C  0.85377311  0.77556579  0.26047103     0.98800
O2404       O  0.83868488  0.67188222  0.19697929    -0.62400
O2405       O  0.72105000  0.68386960  0.35328179    -0.57200
O2406       O  0.81587186  0.67889382  0.27922409    -0.93900
O2407       O  0.79411228  0.69755443  0.34272043    -0.92300
O2408       O  0.68727225  0.65149659  0.27403094    -0.92700
O2409       O  0.74029369  0.62799965  0.22485849    -0.91400
C2410       C  0.81200281  0.67805685  0.32116372     1.17600
H2411       H  0.68782599  0.71272911  0.29583173     0.33600
H2412       H  0.76164706  0.68839933  0.15462517     0.44400
H2413       H  0.80870717  0.75130884  0.30210601     0.37900
H2414       H  0.73012464  0.82020470  0.19392456     0.34400
H2415       H  0.69966508  0.67072842  0.12674003     0.26200
H2416       H  0.76517770  0.79742446  0.07260465     0.32100
H2417       H  0.80501411  0.83301480  0.16949251     0.38100
H2418       H  0.66606551  0.65961365  0.27212100     0.32500
H2419       H  0.73628701  0.67053191  0.36988827     0.31400
H2420       H  0.75762471  0.72078122  0.41281621     0.33100
H2421       H  0.82761924  0.85548213  0.24378664     0.32000
H2422       H  0.76194210  0.63231147  0.21815041     0.36000
H2423       H  0.85649735  0.67485050  0.21655062     0.28800
H2424       H  0.63793604  0.81054824  0.24969303     0.33000
H2425       H  0.76946350  0.83138157  0.33486999     0.35900
H2426       H  0.70855555  0.69479950  0.37636707     0.28500
H2427       H  0.82948515  0.65026057  0.20627775     0.41300
H2428       H  0.70529837  0.72441990  0.08707536     0.31400
H2429       H  0.72913802  0.64947070  0.13445383     0.39000
H2430       H  0.81830370  0.85318309  0.29375649     0.30900
H2431       H  0.75189696  0.82353578  0.10619058     0.30900
H2432       H  0.66408860  0.83661809  0.25829744     0.31200
C2433       C  0.65091108  0.83517529  0.42935193     0.03300
C2434       C  0.65857703  0.83677281  0.47437737    -0.12900
C2435       C  0.65716418  0.86644787  0.49870149     0.00800
C2436       C  0.65015295  0.89619503  0.47619575    -0.11400
C2437       C  0.64751415  0.89820979  0.42960420     0.03300
C2438       C  0.64714515  0.86667071  0.40574542    -0.10800
H2439       H  0.66580191  0.81377190  0.49015274     0.08900
H2440       H  0.64773883  0.91878333  0.49537035     0.06400
H2441       H  0.64417325  0.86663766  0.37021309     0.06300
C2442       C  0.66788992  0.83654956  0.11839095     0.03300
C2443       C  0.66201639  0.83564447  0.07295684    -0.12900
C2444       C  0.66301456  0.86568264  0.04743154     0.00800
C2445       C  0.67212961  0.89572247  0.06881094    -0.11400
C2446       C  0.67557661  0.89662142  0.11476310     0.03300
C2447       C  0.67094021  0.86743249  0.13936480    -0.10800
H2448       H  0.65771685  0.81130489  0.05841312     0.08900
H2449       H  0.67753285  0.91824760  0.05021589     0.06400
H2450       H  0.67545504  0.86781783  0.17463338     0.06300
N2451       N  0.64824078  0.93240485  0.40934790    -0.03300
C2452       C  0.67676950  0.94571143  0.40122043    -0.00700
C2453       C  0.68414054  0.96875143  0.43414727    -0.23600
C2454       C  0.65772859  0.97840742  0.45265790    -0.23800
C2455       C  0.63575720  0.95779025  0.43514683    -0.00800
H2456       H  0.70472213  0.48245495  0.43910212     0.13000
H2457       H  0.65461075  0.49817510  0.47759924     0.13000
N2458       N  0.84807243  0.55535657  0.05394856    -0.03300
C2459       C  0.81987734  0.54101227  0.06211856    -0.00700
C2460       C  0.81525011  0.01522264  0.03270673    -0.23600
C2461       C  0.84221899  0.00680912  0.01514921    -0.23800
C2462       C  0.86204603  0.52990310  0.02971952    -0.00800
H2463       H  0.79563631  0.99880633  0.03168147     0.13000
H2464       H  0.84648698  0.98505551  0.99448156     0.13000
Zr2465     Zr  0.80087384  0.52507408  0.21927045     2.17500
O2466       O  0.83661433  0.56933712  0.19880659    -0.51200
O2467       O  0.84453502  0.49102373  0.24407179    -0.74400
O2468       O  0.81643209  0.55773248  0.28214450    -0.81200
O2469       O  0.77831539  0.02273201  0.10221838    -0.82900
O2470       O  0.78930450  0.54327959  0.34329208    -0.78500
O2471       O  0.81893781  0.53650917  0.14296889    -0.90200
O2472       O  0.83531080  0.93797748  0.26756642    -0.76100
O2473       O  0.79130030  0.48688632  0.27804393    -0.85600
O2474       O  0.79250039  0.97171347  0.18563208    -0.85300
O2475       O  0.75754363  0.54833454  0.25868269    -0.72100
O2476       O  0.75646401  0.53555635  0.17485808    -0.84200
Zr2477     Zr  0.69414870  0.96333147  0.24169488     2.26400
Zr2478     Zr  0.74836258  0.50801728  0.31730139     2.06300
Zr2479     Zr  0.74789855  0.98097460  0.14218578     2.10000
Zr2480     Zr  0.78216986  0.93389960  0.24556961     1.78800
O2481       O  0.72512195  0.99752925  0.07195134    -0.93000
O2482       O  0.78784793  0.90568846  0.31746527    -0.40800
O2483       O  0.73757061  0.94217198  0.20141503    -0.77400
O2484       O  0.73901323  0.95436543  0.28511526    -0.96100
O2485       O  0.70278724  0.51689792  0.27529478    -0.89400
O2486       O  0.70370125  0.99999073  0.18041572    -0.92300
C2487       C  0.85355945  0.96258940  0.26141460     1.01500
C2488       C  0.80441013  0.53514879  0.10601672     1.14400
C2489       C  0.80982317  0.56030026  0.32325786     1.05200
O2490       O  0.77291125  0.48562034  0.38336209    -0.94400
O2491       O  0.71317183  0.47493768  0.36112166    -0.90200
O2492       O  0.67816527  0.94818944  0.31901624    -0.83300
C2493       C  0.69011220  0.95598068  0.35671377     1.11800
O2494       O  0.73482432  0.58514386  0.15322478    -0.96400
Zr2495     Zr  0.71239255  0.55395172  0.21451514     1.88900
O2496       O  0.64896698  0.99650112  0.22212477    -0.73100
O2497       O  0.72217193  0.55010920  0.36184174    -0.52300
O2498       O  0.70695226  0.58693769  0.28180180    -0.97000
O2499       O  0.68413078  0.60591905  0.20001330    -0.54200
O2500       O  0.65998096  0.54643163  0.19156733    -0.73600
C2501       C  0.64091788  0.52390959  0.20289803     0.98800
O2502       O  0.65757533  0.91929757  0.25964530    -0.62400
O2503       O  0.77758704  0.93827652  0.10365971    -0.57200
O2504       O  0.68381498  0.92742877  0.17931501    -0.93900
O2505       O  0.70805002  0.94399604  0.11655674    -0.92300
O2506       O  0.80920596  0.90164832  0.18943781    -0.92700
O2507       O  0.75508384  0.88082978  0.23931740    -0.91400
C2508       C  0.68940310  0.92522191  0.13779314     1.17600
H2509       H  0.80965989  0.96483647  0.16789046     0.33600
H2510       H  0.73487946  0.93731398  0.30701743     0.44400
H2511       H  0.68772282  0.99969862  0.15864809     0.37900
H2512       H  0.76219614  0.57030670  0.27047314     0.34400
H2513       H  0.80957381  0.90664356  0.32545840     0.26200
H2514       H  0.72306421  0.54114907  0.39243246     0.32100
H2515       H  0.68648798  0.58127001  0.29311622     0.38100
H2516       H  0.83084414  0.90795819  0.19219055     0.32500
H2517       H  0.77220560  0.91688493  0.11868755     0.31400
H2518       H  0.73523309  0.98337889  0.04939110     0.33100
H2519       H  0.66605963  0.60535306  0.21943617     0.32000
H2520       H  0.73428705  0.88567486  0.25002009     0.36000
H2521       H  0.64129751  0.92126546  0.23719710     0.28800
H2522       H  0.85472414  0.56564266  0.21762773     0.33000
H2523       H  0.72200675  0.57958355  0.12733880     0.35900
H2524       H  0.76808867  0.93643602  0.07409389     0.28500
H2525       H  0.66803533  0.89781911  0.25288087     0.41300
H2526       H  0.79249974  0.47636203  0.37279418     0.31400
H2527       H  0.77811254  0.92058559  0.33949395     0.39000
H2528       H  0.67581200  0.60380689  0.16968079     0.30900
H2529       H  0.73578158  0.56993685  0.36213955     0.30900
H2530       H  0.82742899  0.59049749  0.20974327     0.31200
C2531       C  0.82326765  0.58878021  0.34656538     0.03300
C2532       C  0.82508290  0.61871172  0.32275850    -0.12900
C2533       C  0.82553289  0.64937308  0.34463436     0.00800
C2534       C  0.83136174  0.65010124  0.38998088    -0.11400
C2535       C  0.83281617  0.61974755  0.41489710     0.03300
C2536       C  0.82667407  0.58919663  0.39251807    -0.10800
H2537       H  0.82033438  0.61841718  0.28754823     0.08900
H2538       H  0.83384410  0.67465236  0.40467803     0.06400
H2539       H  0.82301331  0.56583136  0.41012005     0.06300
C2540       C  0.84814619  0.58945323  0.03363273     0.03300
C2541       C  0.84618648  0.59061513  0.48678918    -0.12900
C2542       C  0.83859672  0.62005440  0.46388435     0.00800
C2543       C  0.83632824  0.64977299  0.48798878    -0.11400
C2544       C  0.84490982  0.65262448  0.03333521     0.03300
C2545       C  0.84908906  0.62121685  0.05713003    -0.10800
H2546       H  0.84863260  0.56759271  0.46848760     0.08900
H2547       H  0.82794422  0.67219018  0.47221700     0.06400
H2548       H  0.85277918  0.62146193  0.09251374     0.06300
N2549       N  0.59840691  0.68158421  0.15897494    -0.03300
C2550       C  0.56988538  0.69513456  0.15104102    -0.00700
C2551       C  0.56412051  0.72153489  0.17983036    -0.23600
C2552       C  0.59093834  0.73046162  0.19757098    -0.23800
C2553       C  0.61195007  0.70730111  0.18298168    -0.00800
H2554       H  0.54409645  0.73738016  0.18097492     0.13000
H2555       H  0.59480829  0.75221397  0.21837601     0.13000
N2556       N  0.89840587  0.80472988  0.30103759    -0.03300
C2557       C  0.92690442  0.79123830  0.30876438    -0.00700
C2558       C  0.93407618  0.76803977  0.27588142    -0.23600
C2559       C  0.90756892  0.75861669  0.25763185    -0.23800
C2560       C  0.88576400  0.77942131  0.27537429    -0.00800
H2561       H  0.95470013  0.75335665  0.27256943     0.13000
H2562       H  0.90441932  0.73802641  0.23464770     0.13000
Zr2563     Zr  0.55140466  0.71168785  0.49297668     2.17500
O2564       O  0.58844155  0.66781251  0.01378173    -0.51200
O2565       O  0.59478103  0.74601251  0.46777900    -0.74400
O2566       O  0.56666335  0.67814667  0.43078957    -0.81200
O2567       O  0.52727753  0.71250850  0.10977600    -0.82900
O2568       O  0.54060939  0.69387183  0.36916674    -0.78500
O2569       O  0.56936375  0.69993325  0.07017812    -0.90200
O2570       O  0.58480232  0.79946976  0.44562867    -0.76100
O2571       O  0.54191874  0.75005321  0.43422965    -0.85600
O2572       O  0.54151303  0.76450943  0.52611418    -0.85300
O2573       O  0.00827078  0.68914905  0.45231378    -0.72100
O2574       O  0.50786629  0.70115576  0.03749939    -0.84200
Zr2575     Zr  0.94378565  0.77367789  0.46834224     2.26400
Zr2576     Zr  0.99918097  0.72960847  0.39395713     2.06300
Zr2577     Zr  0.49752129  0.75465998  0.06927184     2.10000
Zr2578     Zr  0.53147778  0.80301706  0.46683615     1.78800
O2579       O  0.47224619  0.73731357  0.13736184    -0.93000
O2580       O  0.53753948  0.83167720  0.39531126    -0.40800
O2581       O  0.98693209  0.79416530  0.50974161    -0.77400
O2582       O  0.98874345  0.78335583  0.42570654    -0.96100
O2583       O  0.95343675  0.72057986  0.43556625    -0.89400
O2584       O  0.95410625  0.73674267  0.03012564    -0.92300
C2585       C  0.60295061  0.77456723  0.45072828     1.01500
C2586       C  0.55461729  0.70109224  0.10701500     1.14400
C2587       C  0.56048537  0.67605713  0.38949526     1.05200
O2588       O  0.02458472  0.75426473  0.33004392    -0.94400
O2589       O  0.96414377  0.76248314  0.34992239    -0.90200
O2590       O  0.92819794  0.78865525  0.39080133    -0.83300
C2591       C  0.94036555  0.78116826  0.35311270     1.11800
O2592       O  0.98695596  0.65276687  0.05891631    -0.96400
Zr2593     Zr  0.96391526  0.68349237  0.99763393     1.88900
O2594       O  0.89958122  0.74044572  0.98836495    -0.73100
O2595       O  0.97492991  0.68769377  0.34699875    -0.52300
O2596       O  0.95853068  0.65054419  0.42830672    -0.97000
O2597       O  0.93537420  0.63178331  0.01193431    -0.54200
O2598       O  0.91142356  0.69076300  0.02073779    -0.73600
C2599       C  0.89234288  0.71348742  0.00999420     0.98800
O2600       O  0.90869143  0.81902959  0.44917400    -0.62400
O2601       O  0.52725947  0.79494278  0.11182769    -0.57200
O2602       O  0.93429042  0.80952454  0.03181340    -0.93900
O2603       O  0.95870616  0.79285442  0.09440665    -0.92300
O2604       O  0.55805957  0.83396773  0.52464023    -0.92700
O2605       O  0.50509076  0.85658191  0.47415461    -0.91400
C2606       C  0.94004848  0.81168926  0.07324239     1.17600
H2607       H  0.55932796  0.77128976  0.04453495     0.33600
H2608       H  0.98442991  0.80053062  0.40402960     0.44400
H2609       H  0.93811200  0.73694014  0.05187959     0.37900
H2610       H  0.01297708  0.66719960  0.44047347     0.34400
H2611       H  0.55929890  0.83063586  0.38747362     0.26200
H2612       H  0.98092279  0.69412468  0.31654738     0.32100
H2613       H  0.93944997  0.65523697  0.91868283     0.38100
H2614       H  0.57971935  0.82760550  0.52203543     0.32500
H2615       H  0.51501686  0.79940948  0.13865127     0.31400
H2616       H  0.48271989  0.74976425  0.16122657     0.33100
H2617       H  0.91738695  0.63239846  0.99232982     0.32000
H2618       H  0.98432244  0.85263136  0.46473974     0.36000
H2619       H  0.89099543  0.81612054  0.46902264     0.28800
H2620       H  0.60627580  0.67114489  0.99431821     0.33000
H2621       H  0.97400764  0.65800849  0.08480234     0.35900
H2622       H  0.54496467  0.78198940  0.12274751     0.28500
H2623       H  0.91862036  0.84003864  0.45911419     0.41300
H2624       H  0.54261989  0.76180358  0.33942636     0.31400
H2625       H  0.52789421  0.81699949  0.37300827     0.39000
H2626       H  0.92696945  0.63388212  0.04222117     0.30900
H2627       H  0.98605833  0.66641737  0.35272897     0.30900
H2628       H  0.57912738  0.64648636  0.00376018     0.31200
C2629       C  0.57627407  0.58687919  0.36778205     0.03300
C2630       C  0.57587023  0.61751691  0.38975179    -0.12900
C2631       C  0.57371412  0.64748487  0.36603518     0.00800
C2632       C  0.57674465  0.64713946  0.32003824    -0.11400
C2633       C  0.58294523  0.61668561  0.29752211     0.03300
C2634       C  0.58177969  0.58626318  0.32230830    -0.10800
H2635       H  0.57143189  0.61775596  0.42504830     0.08900
H2636       H  0.57284937  0.67049290  0.30245601     0.06400
H2637       H  0.58426601  0.56177675  0.30737303     0.06300
C2638       C  0.59914759  0.64760971  0.17939548     0.03300
C2639       C  0.59896359  0.61600288  0.15568981    -0.12900
C2640       C  0.59414108  0.58480344  0.17940106     0.00800
C2641       C  0.58587732  0.58712173  0.22415290    -0.11400
C2642       C  0.58859008  0.61660650  0.24853822     0.03300
C2643       C  0.59653349  0.64603174  0.22593903    -0.10800
H2644       H  0.60219283  0.61574737  0.12020856     0.08900
H2645       H  0.57735068  0.56474982  0.23982911     0.06400
H2646       H  0.59936842  0.66882478  0.24460699     0.06300
N2647       N  0.59543576  0.55040883  0.16084469    -0.03300
C2648       C  0.56790309  0.53510114  0.15278651    -0.00700
C2649       C  0.56237574  0.01042760  0.18339517    -0.23600
C2650       C  0.58887627  0.00367391  0.20344184    -0.23800
C2651       C  0.60884633  0.52650697  0.18828303    -0.00800
H2652       H  0.54291213  0.99384178  0.18532312     0.13000
H2653       H  0.59308300  0.98302319  0.22615884     0.13000
N2654       N  0.90045515  0.93600994  0.30162204    -0.03300
C2655       C  0.92807613  0.95124790  0.30979297    -0.00700
C2656       C  0.93233899  0.97907054  0.28278344    -0.23600
C2657       C  0.90543274  0.98589630  0.26373899    -0.23800
C2658       C  0.88584159  0.96070438  0.27672011    -0.00800
H2659       H  0.94993948  0.49756571  0.28440020     0.13000
H2660       H  0.89923213  0.50842548  0.24452011     0.13000
Zr2661     Zr  0.94400716  0.96493351  0.46623307     2.17500
O2662       O  0.90677250  0.92345208  0.44200755    -0.51200
O2663       O  0.90176990  0.99994427  0.99366792    -0.74400
O2664       O  0.92714110  0.93094997  0.02762967    -0.81200
O2665       O  0.97044734  0.46608140  0.35096774    -0.82900
O2666       O  0.95201396  0.94708222  0.08988163    -0.78500
O2667       O  0.92786385  0.95490271  0.38951893    -0.90200
O2668       O  0.91254882  0.55182494  0.01812125    -0.76100
O2669       O  0.95413862  0.00256201  0.02543849    -0.85600
O2670       O  0.95563087  0.51751530  0.43372715    -0.85300
O2671       O  0.98584121  0.93918623  0.50624987    -0.72100
O2672       O  0.98863129  0.95412233  0.42240575    -0.84200
Zr2673     Zr  0.55251277  0.52133018  0.49383986     2.26400
Zr2674     Zr  0.49460809  0.97866902  0.06593190     2.06300
Zr2675     Zr  0.00078379  0.50675861  0.39216064     2.10000
Zr2676     Zr  0.96496079  0.55441890  0.99341479     1.78800
O2677       O  0.02359958  0.49016716  0.32205892    -0.93000
O2678       O  0.95737989  0.58223312  0.06453681    -0.40800
O2679       O  0.01116180  0.54538366  0.45127393    -0.77400
O2680       O  0.50730717  0.53192197  0.03573239    -0.96100
O2681       O  0.54085958  0.96846334  0.52456860    -0.89400
O2682       O  0.54297109  0.48542075  0.43224813    -0.92300
C2683       C  0.89387385  0.52754783  0.01275365     1.01500
C2684       C  0.94330209  0.95552447  0.35342805     1.14400
C2685       C  0.93232792  0.92933973  0.06928136     1.05200
O2686       O  0.47221631  0.00224534  0.13273140    -0.94400
O2687       O  0.52993482  0.00996893  0.11052301    -0.90200
O2688       O  0.56740149  0.53482054  0.07162307    -0.83300
C2689       C  0.55435499  0.52720259  0.10853940     1.11800
O2690       O  0.50833581  0.90057690  0.40315625    -0.96400
Zr2691     Zr  0.53133082  0.93246986  0.46317250     1.88900
O2692       O  0.59746457  0.48758296  0.47490469    -0.73100
O2693       O  0.51591318  0.93355925  0.11116082    -0.52300
O2694       O  0.53443239  0.89922272  0.53090524    -0.97000
O2695       O  0.55997904  0.88049462  0.45163886    -0.54200
O2696       O  0.58410776  0.93948811  0.44019857    -0.73600
C2697       C  0.60393686  0.96132799  0.45116496     0.98800
O2698       O  0.58881559  0.56535088  0.01605206    -0.62400
O2699       O  0.97308920  0.55052184  0.35219365    -0.57200
O2700       O  0.56639678  0.55749683  0.43330760    -0.93900
O2701       O  0.54502433  0.53869689  0.36961965    -0.92300
O2702       O  0.93682340  0.58612487  0.43792655    -0.92700
O2703       O  0.99140879  0.60796530  0.98735915    -0.91400
C2704       C  0.56276575  0.55822142  0.39128820     1.17600
H2705       H  0.93903606  0.52472794  0.41513914     0.33600
H2706       H  0.51125800  0.54849677  0.05814212     0.44400
H2707       H  0.55910566  0.48536874  0.41067917     0.37900
H2708       H  0.98105890  0.91781924  0.01783913     0.34400
H2709       H  0.95230630  0.56384349  0.08545748     0.26200
H2710       H  0.53654415  0.94138244  0.11893533     0.32100
H2711       H  0.55503272  0.90349013  0.54266640     0.38100
H2712       H  0.91573958  0.57921556  0.94012897     0.32500
H2713       H  0.97891607  0.57174102  0.36711035     0.31400
H2714       H  0.01090789  0.50087032  0.29891543     0.33100
H2715       H  0.57765036  0.88154512  0.47185013     0.32000
H2716       H  0.01165738  0.60378069  0.00051162     0.36000
H2717       H  0.60640483  0.56300795  0.99589689     0.28800
H2718       H  0.88867724  0.92700691  0.46088502     0.33000
H2719       H  0.52176203  0.90455360  0.37738502     0.35900
H2720       H  0.98306475  0.55186724  0.32290039     0.28500
H2721       H  0.57913598  0.58696660  0.00764161     0.41300
H2722       H  0.95227958  0.00940907  0.12329236     0.31400
H2723       H  0.97756516  0.59012538  0.07422531     0.39000
H2724       H  0.56890463  0.88242165  0.42171273     0.30900
H2725       H  0.50446145  0.93468735  0.13931363     0.30900
H2726       H  0.91505769  0.90132221  0.45123597     0.31200
C2727       C  0.90152755  0.90203284  0.28206031     0.03300
C2728       C  0.89789037  0.87040288  0.30536216    -0.12900
C2729       C  0.89778428  0.83902618  0.28112711     0.00800
C2730       C  0.90029028  0.84129114  0.23456336    -0.11400
C2731       C  0.90743815  0.87114842  0.21237358     0.03300
C2732       C  0.90881374  0.90069753  0.23689653    -0.10800
H2733       H  0.89529038  0.87021177  0.34095618     0.08900
H2734       H  0.89773681  0.81880429  0.21519188     0.06400
H2735       H  0.91584587  0.92377722  0.22119469     0.05900
C2736       C  0.91943826  0.90053704  0.09290886     0.03300
C2737       C  0.92269278  0.86979613  0.07175979    -0.12900
C2738       C  0.92651693  0.84040080  0.09620355     0.00800
C2739       C  0.92264133  0.84105811  0.14205555    -0.11400
C2740       C  0.91382671  0.87115599  0.16361388     0.03300
C2741       C  0.91328172  0.90130980  0.13825647    -0.10800
H2742       H  0.92777866  0.86957268  0.03663079     0.08900
H2743       H  0.92759820  0.81827266  0.16038280     0.06400
H2744       H  0.90908962  0.92567427  0.15279543     0.06300
N2745       N  0.65033162  0.80070890  0.90958419    -0.03300
C2746       C  0.67804139  0.78564739  0.90105125    -0.00700
C2747       C  0.68266207  0.75784898  0.92801070    -0.23600
C2748       C  0.65594328  0.75096091  0.94760669    -0.23800
C2749       C  0.63606640  0.77602551  0.93485411    -0.00800
H2750       H  0.70164617  0.74049780  0.92723157     0.13000
H2751       H  0.65119817  0.72902113  0.96785149     0.13000
N2752       N  0.84611774  0.68677980  0.55093669    -0.03300
C2753       C  0.81856837  0.70214065  0.55911576    -0.00700
C2754       C  0.81236865  0.72686419  0.52764083    -0.23600
C2755       C  0.83866880  0.73356304  0.50708879    -0.23800
C2756       C  0.85936957  0.71065321  0.52327637    -0.00800
H2757       H  0.79286828  0.74348728  0.52603675     0.13000
H2758       H  0.84264168  0.75420903  0.48429159     0.13000
Zr2759     Zr  0.69422725  0.77292080  0.74436240     2.17500
O2760       O  0.65746765  0.81539701  0.76763300    -0.51200
O2761       O  0.65149520  0.73785162  0.71829744    -0.74400
O2762       O  0.67662196  0.80690544  0.68351324    -0.81200
O2763       O  0.72114125  0.77177124  0.85920666    -0.82900
O2764       O  0.70172772  0.79107651  0.62129413    -0.78500
O2765       O  0.67790939  0.78258170  0.82118457    -0.90200
O2766       O  0.66362061  0.68613614  0.69199476    -0.76100
O2767       O  0.70405899  0.73567433  0.68513890    -0.85600
O2768       O  0.70546472  0.71985146  0.77666548    -0.85300
O2769       O  0.73637731  0.79851245  0.70500776    -0.72100
O2770       O  0.73880436  0.78336813  0.78855848    -0.84200
Zr2771     Zr  0.80350774  0.71574079  0.71820064     2.26400
Zr2772     Zr  0.74566982  0.75915092  0.64590162     2.06300
Zr2773     Zr  0.75053222  0.72940833  0.81870448     2.10000
Zr2774     Zr  0.71615028  0.68262547  0.71657993     1.78800
O2775       O  0.76782434  0.73862467  0.89423936    -0.93000
O2776       O  0.71237533  0.65398122  0.64495092    -0.40800
O2777       O  0.76154669  0.69155030  0.75901443    -0.77400
O2778       O  0.75818108  0.70519109  0.67643397    -0.96100
O2779       O  0.79159524  0.76901662  0.68693177    -0.89400
O2780       O  0.79337719  0.75120762  0.78013791    -0.92300
C2781       C  0.64454756  0.70989297  0.69869800     1.01500
C2782       C  0.69332230  0.78174565  0.85730630     1.14400
C2783       C  0.68180627  0.80860819  0.64189640     1.05200
O2784       O  0.72235589  0.73783204  0.57852112    -0.94400
O2785       O  0.78030878  0.72723055  0.60080345    -0.90200
O2786       O  0.81805998  0.70272201  0.64035152    -0.83300
C2787       C  0.80489803  0.70993770  0.60334271     1.11800
O2788       O  0.75775916  0.83744185  0.80726434    -0.96400
Zr2789     Zr  0.78175307  0.80455483  0.74879646     1.88900
O2790       O  0.84831854  0.74952465  0.73762388    -0.73100
O2791       O  0.76912663  0.80367943  0.60214072    -0.52300
O2792       O  0.78693467  0.83802111  0.68167067    -0.97000
O2793       O  0.81003333  0.85606307  0.76423781    -0.54200
O2794       O  0.83441775  0.79751145  0.77217520    -0.73600
C2795       C  0.85443044  0.77599051  0.76071656     0.98800
O2796       O  0.84149342  0.67417894  0.69641616    -0.62400
O2797       O  0.72231946  0.68255713  0.85081220    -0.57200
O2798       O  0.81717608  0.67940730  0.77887187    -0.93900
O2799       O  0.79504975  0.69788180  0.84224155    -0.92300
O2800       O  0.68754798  0.65203290  0.77286081    -0.92700
O2801       O  0.74052485  0.62809877  0.72593181    -0.91400
C2802       C  0.81316103  0.67854511  0.82083107     1.17600
H2803       H  0.68861576  0.71279855  0.79490272     0.33600
H2804       H  0.76265420  0.68830645  0.65451841     0.44400
H2805       H  0.80941276  0.75119019  0.80184450     0.37900
H2806       H  0.73097650  0.82045350  0.69353478     0.34400
H2807       H  0.69057486  0.65229725  0.63760224     0.26200
H2808       H  0.76738166  0.79582927  0.57118585     0.32100
H2809       H  0.80747382  0.83265513  0.67039152     0.38100
H2810       H  0.66630517  0.65993934  0.77034378     0.32500
H2811       H  0.73807914  0.66727481  0.86288611     0.31400
H2812       H  0.75828005  0.72048883  0.91197480     0.33100
H2813       H  0.82794856  0.85592206  0.74441802     0.32000
H2814       H  0.76142686  0.63127326  0.71463400     0.36000
H2815       H  0.85870678  0.67729717  0.71705410     0.28800
H2816       H  0.63923079  0.81174809  0.74913838     0.33000
H2817       H  0.77015007  0.83300702  0.83399890     0.35900
H2818       H  0.71217441  0.69208725  0.87717996     0.28500
H2819       H  0.83273623  0.65201787  0.70435789     0.41300
H2820       H  0.70386619  0.72595265  0.58864660     0.31400
H2821       H  0.72008259  0.67009920  0.62263471     0.39000
H2822       H  0.81857525  0.85322437  0.79429475     0.30900
H2823       H  0.75486084  0.82293733  0.60402221     0.30900
H2824       H  0.66590013  0.83719941  0.75750421     0.31200
C2825       C  0.65116024  0.83470655  0.92903536     0.03300
C2826       C  0.65856300  0.83612206  0.97416100    -0.12900
C2827       C  0.65675268  0.86561634  0.99867965     0.00800
C2828       C  0.64936943  0.89540315  0.97651859    -0.11400
C2829       C  0.64704225  0.89768641  0.92993607     0.03300
C2830       C  0.64716865  0.86629268  0.90571387    -0.10800
H2831       H  0.66595781  0.81316705  0.98994095     0.08900
H2832       H  0.64669929  0.91784466  0.99599081     0.06400
H2833       H  0.64446718  0.86644823  0.87013163     0.06300
C2834       C  0.66851654  0.83729517  0.61835590     0.03300
C2835       C  0.66263715  0.83651832  0.57296624    -0.12900
C2836       C  0.66315518  0.86665025  0.54761746     0.00800
C2837       C  0.67147011  0.89685182  0.56941043    -0.11400
C2838       C  0.67499840  0.89753749  0.61537730     0.03300
C2839       C  0.67120783  0.86805671  0.63966504    -0.10800
H2840       H  0.65876931  0.81212289  0.55838523     0.08900
H2841       H  0.67642121  0.91967539  0.55122061     0.06400
H2842       H  0.67606955  0.86824893  0.67484891     0.06300
N2843       N  0.64812865  0.93198128  0.91006507    -0.03300
C2844       C  0.67682061  0.94492780  0.90235716    -0.00700
C2845       C  0.68422287  0.96785952  0.93540767    -0.23600
C2846       C  0.65778787  0.97786413  0.95352562    -0.23800
C2847       C  0.63574076  0.95749999  0.93575561    -0.00800
H2848       H  0.70563765  0.48164942  0.93935997     0.13000
H2849       H  0.65570765  0.49795248  0.97816500     0.13000
N2850       N  0.84859864  0.55534784  0.55387974    -0.03300
C2851       C  0.82027727  0.54123843  0.56190182    -0.00700
C2852       C  0.81541567  0.01423389  0.53372950    -0.23600
C2853       C  0.84228253  0.00626594  0.51553136    -0.23800
C2854       C  0.86274942  0.52967878  0.53034069    -0.00800
H2855       H  0.79603210  0.99748691  0.53330940     0.13000
H2856       H  0.84667948  0.98439599  0.49512524     0.13000
Zr2857     Zr  0.80115805  0.52537517  0.71914245     2.17500
O2858       O  0.83580593  0.57088529  0.69941306    -0.51200
O2859       O  0.84501556  0.49105571  0.74329239    -0.74400
O2860       O  0.81647230  0.55825458  0.78208331    -0.81200
O2861       O  0.77803573  0.02322262  0.60279921    -0.82900
O2862       O  0.78945048  0.54356073  0.84321396    -0.78500
O2863       O  0.81911203  0.53675701  0.64270637    -0.90200
O2864       O  0.83547264  0.93821201  0.76671142    -0.76100
O2865       O  0.79167195  0.48695459  0.77771928    -0.85600
O2866       O  0.79214617  0.97226560  0.68605280    -0.85300
O2867       O  0.75776368  0.54816569  0.75876171    -0.72100
O2868       O  0.75660649  0.53605604  0.67501783    -0.84200
Zr2869     Zr  0.69405972  0.96315295  0.74304340     2.26400
Zr2870     Zr  0.74876407  0.50780559  0.81729539     2.06300
Zr2871     Zr  0.74741676  0.98179544  0.64304740     2.10000
Zr2872     Zr  0.78221473  0.93396150  0.74555384     1.78800
O2873       O  0.72453800  0.99946544  0.57334113    -0.93000
O2874       O  0.78813675  0.90575672  0.81743336    -0.40800
O2875       O  0.73741939  0.94262564  0.70199353    -0.77400
O2876       O  0.73910731  0.95373743  0.78583738    -0.96100
O2877       O  0.70303876  0.51679855  0.77554124    -0.89400
O2878       O  0.70341477  0.00029214  0.68219184    -0.92300
C2879       C  0.85357323  0.96302129  0.76099572     1.01500
C2880       C  0.80457212  0.53576120  0.60572708     1.14400
C2881       C  0.80982481  0.56082398  0.82319717     1.05200
O2882       O  0.77372850  0.48306709  0.88158648    -0.94400
O2883       O  0.71341994  0.47490850  0.86105634    -0.90200
O2884       O  0.67821129  0.94778869  0.82029745    -0.83300
C2885       C  0.69031017  0.95519664  0.85801759     1.11800
O2886       O  0.73465090  0.58625538  0.65425920    -0.96400
Zr2887     Zr  0.71249799  0.55410765  0.71500094     1.88900
O2888       O  0.64852237  0.99621265  0.72459378    -0.73100
O2889       O  0.72346298  0.54970824  0.86328270    -0.52300
O2890       O  0.70833158  0.58665750  0.78297009    -0.97000
O2891       O  0.68375675  0.60596834  0.70242343    -0.54200
O2892       O  0.65997156  0.54646660  0.69196285    -0.73600
C2893       C  0.64083262  0.52407812  0.70355962     0.98800
O2894       O  0.65928355  0.91738442  0.76112827    -0.62400
O2895       O  0.77632601  0.93920521  0.60290672    -0.57200
O2896       O  0.68276686  0.92831781  0.68003258    -0.93900
O2897       O  0.70754708  0.94475354  0.61762397    -0.92300
O2898       O  0.80951406  0.90196978  0.68948788    -0.92700
O2899       O  0.75565607  0.88075857  0.73733888    -0.91400
C2900       C  0.68861282  0.92615177  0.63859159     1.17600
H2901       H  0.80927942  0.96561405  0.66812842     0.33600
H2902       H  0.73499269  0.93649875  0.80751004     0.44400
H2903       H  0.68737557  0.00006690  0.66053401     0.37900
H2904       H  0.76243853  0.57011066  0.77057841     0.34400
H2905       H  0.80990456  0.90681082  0.82517269     0.26200
H2906       H  0.72516408  0.54074433  0.89379697     0.32100
H2907       H  0.68785743  0.58149846  0.79464163     0.38100
H2908       H  0.83047458  0.91090626  0.68920534     0.32500
H2909       H  0.76392872  0.93411503  0.57644857     0.31400
H2910       H  0.73736261  0.98920508  0.55007823     0.33100
H2911       H  0.66595948  0.60481994  0.72233491     0.32000
H2912       H  0.73512192  0.88491006  0.74951929     0.36000
H2913       H  0.64237400  0.91916770  0.73967524     0.28800
H2914       H  0.85357636  0.56845291  0.71923540     0.33000
H2915       H  0.72220504  0.58042532  0.62809891     0.35900
H2916       H  0.79423468  0.95127878  0.59110301     0.28500
H2917       H  0.67027212  0.89653876  0.75294508     0.41300
H2918       H  0.79485444  0.47870977  0.87191433     0.31400
H2919       H  0.77849718  0.92061789  0.83958679     0.39000
H2920       H  0.67501604  0.60391687  0.67236299     0.30900
H2921       H  0.73688557  0.56969563  0.86291020     0.30900
H2922       H  0.82550319  0.59178197  0.70911163     0.31200
C2923       C  0.82321992  0.58933907  0.84668941     0.03300
C2924       C  0.82595024  0.61915169  0.82278141    -0.12900
C2925       C  0.82656760  0.64988151  0.84454066     0.00800
C2926       C  0.83180876  0.65064671  0.89009082    -0.11400
C2927       C  0.83240993  0.62037387  0.91521921     0.03300
C2928       C  0.82591009  0.58991123  0.89276074    -0.10800
H2929       H  0.82168580  0.61884818  0.78744449     0.08900
H2930       H  0.83434556  0.67518856  0.90477973     0.06400
H2931       H  0.82146841  0.56670485  0.91030827     0.06300
C2932       C  0.84906049  0.58928909  0.53327400     0.03300
C2933       C  0.84455320  0.59092844  0.98730127    -0.12900
C2934       C  0.83793969  0.62063528  0.96436185     0.00800
C2935       C  0.83679748  0.65050353  0.98845154    -0.11400
C2936       C  0.84473660  0.65226078  0.53266062     0.03300
C2937       C  0.84933869  0.62107990  0.55665366    -0.10800
H2938       H  0.84613307  0.56781118  0.96907514     0.08900
H2939       H  0.82942255  0.67330993  0.97255545     0.06400
H2940       H  0.85276761  0.62149929  0.59208784     0.06300
N2941       N  0.59878050  0.68151225  0.65830146    -0.03300
C2942       C  0.57040500  0.69554757  0.65022850    -0.00700
C2943       C  0.56493373  0.72208802  0.67887332    -0.23600
C2944       C  0.59176440  0.73053698  0.69686508    -0.23800
C2945       C  0.61254366  0.70707559  0.68245242    -0.00800
H2946       H  0.54513593  0.73827829  0.67985142     0.13000
H2947       H  0.59583375  0.75229214  0.71758029     0.13000
N2948       N  0.89868199  0.80542350  0.80174948    -0.03300
C2949       C  0.92727983  0.79226266  0.80994919    -0.00700
C2950       C  0.93476450  0.76912134  0.77714642    -0.23600
C2951       C  0.90838826  0.75927500  0.75878936    -0.23800
C2952       C  0.88631700  0.77988514  0.77621104    -0.00800
H2953       H  0.95555852  0.75472060  0.77397612     0.13000
H2954       H  0.90553224  0.73862538  0.73582176     0.13000
Zr2955     Zr  0.55228856  0.71174630  0.99327026     2.17500
O2956       O  0.58770569  0.66807345  0.51430606    -0.51200
O2957       O  0.59597886  0.74586620  0.96878775    -0.74400
O2958       O  0.56778574  0.67811001  0.93095221    -0.81200
O2959       O  0.52759499  0.71316189  0.60930112    -0.82900
O2960       O  0.54100408  0.69309222  0.86967860    -0.78500
O2961       O  0.56941649  0.70017983  0.56933092    -0.90200
O2962       O  0.58557038  0.79886982  0.94510893    -0.76100
O2963       O  0.54260116  0.74999644  0.93442608    -0.85600
O2964       O  0.54230204  0.76460155  0.02648438    -0.85300
O2965       O  0.00884683  0.68927176  0.95312202    -0.72100
O2966       O  0.50686295  0.70093054  0.53706289    -0.84200
Zr2967     Zr  0.94459584  0.77393882  0.96932081     2.26400
Zr2968     Zr  0.99968547  0.72988303  0.89483590     2.06300
Zr2969     Zr  0.49674083  0.75455225  0.56870808     2.10000
Zr2970     Zr  0.53234438  0.80300442  0.96700916     1.78800
O2971       O  0.47258030  0.73842871  0.63805931    -0.93000
O2972       O  0.53847314  0.83324121  0.89656935    -0.40800
O2973       O  0.98779163  0.79473635  0.01039202    -0.77400
O2974       O  0.98952895  0.78366786  0.92652859    -0.96100
O2975       O  0.95419906  0.72071275  0.93696920    -0.89400
O2976       O  0.95329758  0.73635440  0.52898985    -0.92300
C2977       C  0.60389272  0.77416751  0.95078334     1.01500
C2978       C  0.55489083  0.70151954  0.60630034     1.14400
C2979       C  0.56132698  0.67570979  0.88974541     1.05200
O2980       O  0.02381346  0.75417052  0.82964127    -0.94400
O2981       O  0.96429958  0.76317491  0.85146890    -0.90200
O2982       O  0.92858201  0.78973371  0.89220858    -0.83300
C2983       C  0.94063170  0.78209985  0.85450576     1.11800
O2984       O  0.98555667  0.65028674  0.55573368    -0.96400
Zr2985     Zr  0.96305476  0.68325927  0.49603966     1.88900
O2986       O  0.89852296  0.74038543  0.48672908    -0.73100
O2987       O  0.97482565  0.68761877  0.84923673    -0.52300
O2988       O  0.95963118  0.64952067  0.93101821    -0.97000
O2989       O  0.93366149  0.63183957  0.50748221    -0.54200
O2990       O  0.91071694  0.69107668  0.51984849    -0.73600
C2991       C  0.89146542  0.71353538  0.50870429     0.98800
O2992       O  0.90807356  0.81833407  0.95189278    -0.62400
O2993       O  0.52641673  0.79643018  0.60856186    -0.57200
O2994       O  0.93166599  0.80872619  0.53093727    -0.93900
O2995       O  0.95867905  0.79445436  0.59240744    -0.92300
O2996       O  0.55926248  0.83394780  0.02446764    -0.92700
O2997       O  0.50489418  0.85582953  0.97541109    -0.91400
C2998       C  0.93856484  0.81191531  0.57191980     1.17600
H2999       H  0.55855754  0.77114518  0.54416491     0.33600
H3000       H  0.98531417  0.80089299  0.90485847     0.44400
H3001       H  0.93728688  0.73666266  0.55070482     0.37900
H3002       H  0.01343423  0.66731727  0.94121894     0.34400
H3003       H  0.56003763  0.83125169  0.88790356     0.26200
H3004       H  0.97880608  0.69500512  0.81845612     0.32100
H3005       H  0.93823735  0.65625525  0.41635797     0.38100
H3006       H  0.58083095  0.82719328  0.02193099     0.32500
H3007       H  0.51290422  0.80437857  0.63254565     0.31400
H3008       H  0.48356315  0.75122561  0.66110525     0.33100
H3009       H  0.91575067  0.63365839  0.48786077     0.32000
H3010       H  0.98572562  0.85319111  0.96335340     0.36000
H3011       H  0.89240158  0.81739712  0.97535469     0.28800
H3012       H  0.60591344  0.67210903  0.49584179     0.33000
H3013       H  0.97315152  0.65572041  0.58210456     0.35900
H3014       H  0.54242061  0.78337367  0.62393725     0.28500
H3015       H  0.91908303  0.83968909  0.95703931     0.41300
H3016       H  0.54411349  0.76254961  0.84173890     0.31400
H3017       H  0.52779533  0.81987196  0.87386162     0.39000
H3018       H  0.92511858  0.63357647  0.53770109     0.30900
H3019       H  0.98718394  0.66692395  0.85286854     0.30900
H3020       H  0.57907578  0.64665895  0.50330564     0.31200
C3021       C  0.57760268  0.58680411  0.86747755     0.03300
C3022       C  0.57827273  0.61748486  0.88950800    -0.12900
C3023       C  0.57490408  0.64740531  0.86588485     0.00800
C3024       C  0.57674883  0.64698662  0.81969346    -0.11400
C3025       C  0.58274113  0.61659725  0.79695441     0.03300
C3026       C  0.58211042  0.58617481  0.82174417    -0.10800
H3027       H  0.57502612  0.61776029  0.92506415     0.08900
H3028       H  0.57214559  0.67019015  0.80209594     0.06400
H3029       H  0.58412333  0.56170671  0.80657824     0.06300
C3030       C  0.59904639  0.64748900  0.67878587     0.03300
C3031       C  0.59893323  0.61577192  0.65521451    -0.12900
C3032       C  0.59354908  0.58465279  0.67896109     0.00800
C3033       C  0.58470466  0.58718166  0.72344524    -0.11400
C3034       C  0.58782107  0.61660411  0.74785142     0.03300
C3035       C  0.59610048  0.64596302  0.72530299    -0.10800
H3036       H  0.60266668  0.61536511  0.61984057     0.08900
H3037       H  0.57579873  0.56493911  0.73908202     0.06400
H3038       H  0.59903378  0.66872820  0.74403124     0.06300
N3039       N  0.59522503  0.55012144  0.66088029    -0.03300
C3040       C  0.56784925  0.53446691  0.65261358    -0.00700
C3041       C  0.56231067  0.00936768  0.68302473    -0.23600
C3042       C  0.58863635  0.00270563  0.70361811    -0.23800
C3043       C  0.60870101  0.52653689  0.68880243    -0.00800
H3044       H  0.54285951  0.99274921  0.68461579     0.13000
H3045       H  0.59266545  0.98209531  0.72646334     0.13000
N3046       N  0.90028429  0.93653716  0.80135424    -0.03300
C3047       C  0.92779733  0.95186877  0.80997288    -0.00700
C3048       C  0.93218942  0.97967843  0.78298148    -0.23600
C3049       C  0.90540395  0.98644436  0.76354333    -0.23800
C3050       C  0.88581487  0.96117006  0.77624122    -0.00800
H3051       H  0.95117646  0.49491866  0.78257206     0.13000
H3052       H  0.90055550  0.50690681  0.74248624     0.13000
Zr3053     Zr  0.94431112  0.96508781  0.96661866     2.17500
O3054       O  0.90830775  0.92213139  0.94305919    -0.51200
O3055       O  0.90162733  0.00013249  0.49304658    -0.74400
O3056       O  0.92639891  0.93046247  0.52651797    -0.81200
O3057       O  0.97038220  0.46387235  0.85171280    -0.82900
O3058       O  0.95049547  0.94731259  0.58905615    -0.78500
O3059       O  0.92755798  0.95550912  0.88993426    -0.90200
O3060       O  0.91329494  0.55170456  0.51858864    -0.76100
O3061       O  0.95378009  0.00228528  0.52525806    -0.85600
O3062       O  0.95432923  0.51683310  0.93374697    -0.85300
O3063       O  0.98640654  0.93973385  0.00631075    -0.72100
O3064       O  0.98888539  0.95432092  0.92270095    -0.84200
Zr3065     Zr  0.55283486  0.52191327  0.99392211     2.26400
Zr3066     Zr  0.49461722  0.97825162  0.56489080     2.06300
Zr3067     Zr  0.99942648  0.50642543  0.89195522     2.10000
Zr3068     Zr  0.96583113  0.55517664  0.49356212     1.78800
O3069       O  0.01910726  0.49545836  0.81802185    -0.93000
O3070       O  0.96180580  0.58430576  0.56485780    -0.40800
O3071       O  0.01011513  0.54506873  0.95095838    -0.77400
O3072       O  0.50700029  0.53207597  0.53506458    -0.96100
O3073       O  0.54092401  0.96890989  0.02558746    -0.89400
O3074       O  0.54314875  0.48625396  0.93204706    -0.92300
C3075       C  0.89453565  0.52752781  0.51301463     1.01500
C3076       C  0.94294883  0.95607802  0.85375724     1.14400
C3077       C  0.93108208  0.92923068  0.56830105     1.05200
O3078       O  0.47309750  0.00247885  0.63185182    -0.94400
O3079       O  0.53020279  0.00900908  0.60980642    -0.90200
O3080       O  0.56722012  0.53410529  0.57150738    -0.83300
C3081       C  0.55393027  0.52714019  0.60845528     1.11800
O3082       O  0.50950986  0.89989046  0.90446844    -0.96400
Zr3083     Zr  0.53140582  0.93255012  0.96455995     1.88900
O3084       O  0.59800818  0.48834074  0.97481445    -0.73100
O3085       O  0.51648213  0.93287868  0.60915357    -0.52300
O3086       O  0.53429491  0.89912736  0.03226447    -0.97000
O3087       O  0.56082450  0.88091904  0.95423623    -0.54200
O3088       O  0.58409237  0.93942004  0.94125676    -0.73600
C3089       C  0.60387102  0.96153339  0.95129777     0.98800
O3090       O  0.58944916  0.56377677  0.51608311    -0.62400
O3091       O  0.96968238  0.55076773  0.85644293    -0.57200
O3092       O  0.56717333  0.55779045  0.93322150    -0.93900
O3093       O  0.54522408  0.53939812  0.86976649    -0.92300
O3094       O  0.93730959  0.58557307  0.93661568    -0.92700
O3095       O  0.99166760  0.60869054  0.48319835    -0.91400
C3096       C  0.56346759  0.55853389  0.89122251     1.17600
H3097       H  0.93742891  0.52390936  0.91559043     0.33600
H3098       H  0.51144534  0.54896045  0.55693523     0.44400
H3099       H  0.55931323  0.48622146  0.91053375     0.37900
H3100       H  0.98038701  0.91727673  0.51771116     0.34400
H3101       H  0.94002697  0.58556106  0.57249302     0.26200
H3102       H  0.51338685  0.94008746  0.64015442     0.32100
H3103       H  0.55406686  0.90504716  0.04568259     0.38100
H3104       H  0.91565289  0.57806558  0.44043626     0.32500
H3105       H  0.98480294  0.56780965  0.84710875     0.31400
H3106       H  0.00746154  0.51054303  0.79812238     0.33100
H3107       H  0.57841873  0.88250549  0.97453376     0.32000
H3108       H  0.01215701  0.60517869  0.49589570     0.36000
H3109       H  0.60717714  0.56047420  0.49643484     0.28800
H3110       H  0.89036207  0.92466606  0.96250827     0.33000
H3111       H  0.52264927  0.90479405  0.87865448     0.35900
H3112       H  0.96230271  0.54084646  0.82849842     0.28500
H3113       H  0.58062196  0.58570404  0.50702453     0.41300
H3114       H  0.95291012  0.01036297  0.62376662     0.31400
H3115       H  0.96993518  0.56857248  0.58736189     0.39000
H3116       H  0.56983454  0.88244557  0.92432031     0.30900
H3117       H  0.50248433  0.91359471  0.60537081     0.30900
H3118       H  0.91763578  0.90041353  0.95183697     0.31200
C3119       C  0.90144906  0.90254240  0.78180711     0.03300
C3120       C  0.89760566  0.87103903  0.80523865    -0.12900
C3121       C  0.89780670  0.83955651  0.78132438     0.00800
C3122       C  0.90033906  0.84158363  0.73467131    -0.11400
C3123       C  0.90732542  0.87138568  0.71215757     0.03300
C3124       C  0.90885926  0.90103024  0.73662063    -0.10800
H3125       H  0.89473585  0.87101483  0.84078799     0.08900
H3126       H  0.89792549  0.81897869  0.71549750     0.06400
H3127       H  0.91596397  0.92404803  0.72081482     0.05900
C3128       C  0.91782020  0.90059915  0.59211387     0.03300
C3129       C  0.92016721  0.86974682  0.57079810    -0.12900
C3130       C  0.92463772  0.84039595  0.59515048     0.00800
C3131       C  0.92153072  0.84112840  0.64120715    -0.11400
C3132       C  0.91315015  0.87127804  0.66310998     0.03300
C3133       C  0.91241124  0.90141129  0.63771034    -0.10800
H3134       H  0.92450598  0.86938254  0.53547138     0.08900
H3135       H  0.92680418  0.81837092  0.65940434     0.06400
H3136       H  0.90873342  0.92581305  0.65242719     0.06300
loop_ 
_geom_bond_atom_site_label_1 
_geom_bond_atom_site_label_2 
_geom_bond_distance 
_geom_bond_site_symmetry_2 
_ccdc_geom_bond_type 
N1            C5   1.388       .  A
N1            C2   1.382       .  A
N1           C81   1.473       .  S
C2            C3   1.384       .  A
C2           C38   1.491       .  S
C3            C4   1.345       .  A
C3            H6   1.083       .  S
C4            C5   1.378       .  A
C4            H7   1.083       .  S
C5          C233   1.494       .  S
N8           C12   1.391       .  A
N8            C9   1.383       .  A
N8          C192   1.480       .  S
C9           C10   1.390       .  A
C9           C43   1.500       .  S
C10          C11   1.341       .  A
C10          H13   1.083       .  S
C11          C12   1.376       .  A
C11          H14   1.083   1_554  S
C12         C247   1.488       .  S
Zr15         O16   2.440       .  S
Zr15         O17   2.470       .  S
Zr15         O18   2.403       .  S
Zr15         O21   2.464       .  S
Zr15         O23   2.365       .  S
Zr15         O24   2.369       .  S
Zr15         O25   2.428       .  S
Zr15         O26   2.413       .  S
O16          H72   0.990       .  S
O16          H80   0.989       .  S
O17          C37   1.295       .  A
O18          C39   1.280       .  A
O19         Zr29   2.442       .  S
O19          C38   1.287       .  A
O20         Zr28   2.429       .  S
O20          C39   1.282       .  A
O21          C38   1.287       .  A
O22         Zr30   2.437       .  S
O22          C37   1.279       .  A
O23         Zr28   2.373       .  S
O23         Zr30   2.366       .  S
O24         Zr29   2.390       .  S
O24         Zr30   2.390       .  S
O24          H59   0.966       .  S
O25         Zr28   2.412       .  S
O25         Zr45   2.409       .  S
O25          H62   0.965       .  S
O26         Zr29   2.381       .  S
O26         Zr45   2.398       .  S
Zr27         O52   2.439       .  S
Zr27         O46   2.456       .  S
Zr27         O54   2.407       .  S
Zr27         O42   2.491       .  S
Zr27         O33   2.420       .  S
Zr27         O34   2.397       .  S
Zr27         O35   2.371       .  S
Zr27         O36   2.385       .  S
Zr28         O47   2.436       .  S
Zr28         O40   2.435       .  S
Zr28         O41   2.412       .  S
Zr28         O34   2.386       .  S
Zr28         O35   2.408       .  S
Zr29         O31   2.436       .  S
Zr29         O53   2.438       .  S
Zr29         O55   2.429       .  S
Zr29         O33   2.400       .  S
Zr29         O36   2.382       .  S
Zr30         O56   2.438       .  S
Zr30         O57   2.430       .  S
Zr30         O32   2.455       .  S
Zr30         O33   2.402       .  S
Zr30         O34   2.388       .  S
O31          H68   0.990       .  S
O32          H63   0.989       .  S
O32          H77   0.988       .  S
O34          H60   0.963       .  S
O35         Zr45   2.384       .  S
O36         Zr45   2.371       .  S
O36          H61   0.964       .  S
C37         C201   1.497       .  S
C39          C90   1.463       .  S
O40          H76   0.990       .  S
O41          C43   1.285       .  A
O42          C43   1.290       .  A
O44         Zr45   2.438       .  S
O44          H73   0.991       .  S
Zr45         O48   2.435       .  S
Zr45         O49   2.444       .  S
Zr45         O50   2.442       .  S
O46          C51   1.290       .  A
O47          H64   0.990       .  S
O47          H79   0.990       .  S
O48          H65   0.990       .  S
O49          H69   0.991       .  S
O49          H78   0.989       .  S
O50          C51   1.275       .  A
C51         C208   1.489       .  S
O52          H71   0.991       .  S
O52          H75   0.989       .  S
O53          H67   0.990       .  S
O53          H74   0.990       .  S
O54          C58   1.281       .  A
O55          C58   1.283       .  A
O56          H66   0.990       .  S
O57          H70   0.991       .  S
C58         C181   1.465       .  S
C81          C82   1.405       .  A
C81          C86   1.445       .  A
C82          C83   1.390       .  A
C82          H87   1.077       .  S
C83          C84   1.395       .  A
C83         C484   1.500       .  S
C84          C85   1.415       .  A
C84          H88   1.075       .  S
C85          N99   1.486       .  S
C85          C86   1.444       .  A
C86          H89   1.082       .  S
C90          C91   1.398       .  A
C90          C95   1.388       .  A
C91          C92   1.418       .  A
C91          H96   1.079       .  S
C92          C93   1.414       .  A
C92         C475   1.501   1_554  S
C93          C94   1.397       .  A
C93          H97   1.080       .  S
C94          C95   1.390       .  A
C94         C156   1.463       .  S
C95          H98   1.085       .  S
N99         C103   1.387       .  A
N99         C100   1.385       .  A
C100        C101   1.392       .  A
C100        C141   1.522       .  S
C101        C102   1.348       .  A
C101        H888   1.083       .  S
C102        C103   1.375       .  A
C102        H889   1.083       .  S
C103        C345   1.488       .  S
H104        C885   1.083       .  S
H105        C886   1.083       .  S
N106        C110   1.392       .  A
N106        C107   1.388       .  A
N106        C188   1.483       .  S
C107        C892   1.385       .  A
C107        C136   1.507       .  S
C108        C109   1.344       .  A
C108        C891   1.386       .  A
C108        H111   1.084       .  S
C109        C894   1.377       .  A
C109        H112   1.083   1_554  S
C110        C893   1.376       .  A
C110        C331   1.497       .  S
Zr113       O114   2.437       .  S
Zr113       O115   2.466   1_545  S
Zr113       O116   2.410       .  S
Zr113       O119   2.479       .  S
Zr113       O121   2.371   1_545  S
Zr113       O123   2.429       .  S
Zr113       O124   2.409       .  S
Zr113       O906   2.367   1_545  S
O114        H170   0.991       .  S
O114        H178   0.989       .  S
O115        C919   1.294       .  A
O116        C137   1.282       .  A
O117       Zr127   2.452       .  S
O117        C920   1.291       .  A
O118       Zr126   2.420       .  S
O118        C137   1.281       .  A
O119        C136   1.289       .  A
O120       Zr128   2.444       .  S
O120        C135   1.280       .  A
O121       Zr126   2.386   1_565  S
O121       Zr912   2.367       .  S
O122       Zr127   2.391       .  S
O122       Zr128   2.392       .  S
O122       Zr897   2.367       .  S
O122        H157   0.966       .  S
O123       Zr126   2.414       .  S
O123       Zr143   2.403       .  S
O123        H160   0.965       .  S
O124       Zr143   2.396       .  S
O124       Zr911   2.374   1_545  S
Zr125       O150   2.439       .  S
Zr125       O144   2.460       .  S
Zr125       O152   2.407       .  S
Zr125       O140   2.511       .  S
Zr125       O131   2.420       .  S
Zr125       O132   2.396       .  S
Zr125       O134   2.389       .  S
Zr125       O917   2.366       .  S
Zr126       O145   2.436       .  S
Zr126       O138   2.436   1_545  S
Zr126       O139   2.422   1_545  S
Zr126       O133   2.403       .  S
Zr126       O916   2.385   1_545  S
Zr127       O129   2.439       .  S
Zr127       O151   2.436       .  S
Zr127       O153   2.417       .  S
Zr127       O131   2.403       .  S
Zr127       O134   2.386       .  S
Zr127       O908   2.373       .  S
Zr128       O154   2.437       .  S
Zr128       O155   2.430       .  S
Zr128       O130   2.454       .  S
Zr128       O131   2.397       .  S
Zr128       O132   2.390       .  S
Zr128       O905   2.367       .  S
O129        H166   0.990       .  S
O130        H161   0.989       .  S
O130        H175   0.989       .  S
O132       Zr910   2.382       .  S
O132        H158   0.962       .  S
O133       Zr143   2.387       .  S
O133       Zr909   2.365   1_545  S
O134       Zr927   2.369       .  S
O134        H159   0.964       .  S
C135        C306   1.500       .  S
C135        O899   1.294       .  A
C136        O901   1.290       .  A
C137        C179   1.463       .  S
O138        H174   0.991       .  S
O139        C925   1.287       .  A
O140        C141   1.294       .  A
C141        O923   1.288       .  A
O142       Zr143   2.435       .  S
O142        H171   0.991       .  S
Zr143       O146   2.434       .  S
Zr143       O147   2.442       .  S
Zr143       O148   2.436       .  S
Zr143       O918   2.370       .  S
O144        C933   1.292       .  A
O145        H162   0.990       .  S
O145        H177   0.990       .  S
O146        H163   0.990       .  S
O147        H167   0.989       .  S
O147        H176   0.991       .  S
O148        C149   1.274       .  A
C149        C299   1.486       .  S
C149        O928   1.291   1_545  A
O150        H169   0.990       .  S
O150        H173   0.989       .  S
O151        H165   0.990       .  S
O151        H172   0.990       .  S
O152        C156   1.281       .  A
O153        C156   1.282       .  A
O154        H164   0.990       .  S
O155        H168   0.991       .  S
C179        C180   1.390       .  A
C179        C184   1.398       .  A
C180        C181   1.387       .  A
C180        H185   1.085       .  S
C181        C182   1.397       .  A
C182        C183   1.418       .  A
C182        H186   1.078       .  S
C183        C184   1.416       .  A
C183        C190   1.502       .  S
C184        H187   1.080       .  S
C188        C193   1.449       .  A
C188        C581   1.411   1_554  A
C189        C190   1.394       .  A
C189        C580   1.411       .  A
C189        H194   1.074       .  S
C190        C191   1.391       .  A
C191        C584   1.406       .  A
C191        H195   1.074       .  S
C192        C193   1.448       .  A
C192        C583   1.404   1_554  A
C193        H196   1.082       .  S
N197        C201   1.390       .  A
N197        C198   1.388       .  A
N197        C286   1.481       .  S
C198        C199   1.386       .  A
C198        C234   1.506       .  S
C199        C200   1.345       .  A
C199        H202   1.084       .  S
C200        C201   1.376       .  A
C200        H203   1.083       .  S
N204        C208   1.388       .  A
N204        C205   1.385       .  A
N204        C377   1.485       .  S
C205        C206   1.392       .  A
C205        C239   1.518       .  S
C206        C207   1.346       .  A
C206        H209   1.083       .  S
C207        C208   1.375       .  A
C207        H210   1.083       .  S
Zr211       O604   2.438       .  S
Zr211       O213   2.458       .  S
Zr211       O214   2.404       .  S
Zr211       O609   2.474       .  S
Zr211       O219   2.369       .  S
Zr211       O220   2.369       .  S
Zr211      O1789   2.428       .  S
Zr211       O614   2.405       .  S
O212       Zr603   2.439   1_554  S
O212        H268   0.991   1_554  S
O212        H276   0.989       .  S
O213        C233   1.292       .  A
O214        C235   1.280       .  A
O215       Zr225   2.453   1_455  S
O215        C234   1.290       .  A
O216      Zr1792   2.416   1_455  S
O216        C235   1.280       .  A
O217       Zr603   2.479   1_554  S
O217        C234   1.288       .  A
O218       Zr226   2.442       .  S
O218        C233   1.280       .  A
O219       Zr226   2.367       .  S
O219      Zr1792   2.384   1_455  S
O220       Zr226   2.392       .  S
O220       Zr617   2.390   1_455  S
O220        H647   0.966       .  S
O221       Zr224   2.415       .  S
O221      Zr1779   2.432       .  S
O221       Zr633   2.405       .  S
O221        H258   0.965       .  S
O222       Zr225   2.375   1_455  S
O222       Zr603   2.408   1_554  S
O222      Zr1809   2.396   1_454  S
Zr223       O248   2.439       .  S
Zr223       O238   2.509       .  S
Zr223       O634   2.455       .  S
Zr223       O642   2.407       .  S
Zr223       O229   2.420       .  S
Zr223       O230   2.395       .  S
Zr223       O231   2.365       .  S
Zr223       O624   2.389       .  S
Zr224       O243   2.436       .  S
Zr224       O236   2.435       .  S
Zr224       O237   2.421       .  S
Zr224      O1784   2.411       .  S
Zr224       O230   2.382       .  S
Zr224       O231   2.401       .  S
Zr224      O1787   2.383       .  S
Zr225       O227   2.437       .  S
Zr225       O249   2.436   1_655  S
Zr225      O1819   2.420       .  S
Zr225       O612   2.391   1_655  S
Zr225      O2189   2.405       .  S
Zr225      O1800   2.386       .  S
Zr226       O252   2.439       .  S
Zr226       O253   2.430       .  S
Zr226       O228   2.453       .  S
Zr226      O1797   2.395   1_455  S
Zr226      O1798   2.392   1_455  S
O227        H264   0.990       .  S
O228        H259   0.989       .  S
O228        H273   0.988       .  S
O229      Zr2185   2.404       .  S
O229      Zr1794   2.396       .  S
O230      Zr1794   2.391       .  S
O230        H256   0.963       .  S
O231       Zr633   2.386       .  S
O232       Zr241   2.368   1_554  S
O232       Zr615   2.392   1_554  S
O232      Zr1793   2.393       .  S
O232        H257   0.964       .  S
C235        C279   1.459       .  S
O236       H1840   0.991       .  S
O237        C239   1.287       .  A
O238        C239   1.293       .  A
O240       Zr241   2.437   1_554  S
O240        H269   0.991       .  S
Zr241       O245   2.445   1_556  S
Zr241       O636   2.435       .  S
Zr241       O246   2.440   1_556  S
Zr241       O613   2.408       .  S
Zr241      O1790   2.401   1_556  S
Zr241       O623   2.388       .  S
O242       Zr615   2.456       .  S
O242        C247   1.291   1_556  A
O243        H260   0.990       .  S
O243        H275   0.990       .  S
O244       Zr633   2.432       .  S
O244        H653   0.990       .  S
O245        H265   0.990   1_554  S
O245        H274   0.991       .  S
O246        C247   1.274       .  A
O248        H267   0.991       .  S
O248        H271   0.990       .  S
O249        H263   0.990       .  S
O249        H270   0.990       .  S
O250       Zr615   2.407   1_554  S
O250        C254   1.282       .  A
O251      Zr1793   2.416       .  S
O251        C254   1.281       .  A
O252        H262   0.990       .  S
O253       H1834   0.991   1_455  S
C254        C386   1.464       .  S
H255        O612   0.965       .  S
H261        O636   0.990       .  S
H266       O1821   0.991       .  S
H272       O1804   0.991       .  S
C277        C278   1.386       .  A
C277        C282   1.395       .  A
C277        C352   1.465       .  S
C278        C279   1.389       .  A
C278        H283   1.085       .  S
C279        C280   1.396       .  A
C280        C281   1.416       .  A
C280        H284   1.080       .  S
C281        C282   1.419       .  A
C281        C290   1.501       .  S
C282        H285   1.078       .  S
C286        C287   1.448       .  A
C286        C291   1.411       .  A
C287        C288   1.446       .  A
C287        H292   1.082       .  S
C288        N295   1.479       .  S
C288        C289   1.404       .  A
C289        C290   1.390       .  A
C289        H293   1.073       .  S
C290        C291   1.395       .  A
C291        H294   1.074       .  S
N295        C299   1.390       .  A
N295        C296   1.380       .  A
C296       C1081   1.391       .  A
C296        C337   1.498       .  S
C297        C298   1.341       .  A
C297       C1080   1.391       .  A
C297        H300   1.083       .  S
C298       C1083   1.375       .  A
C298        H301   1.083       .  S
C299       C1082   1.376       .  A
N302        C306   1.391       .  A
N302        C303   1.384       .  A
N302        C375   1.473       .  S
C303        C304   1.383       .  A
C303        C332   1.492       .  S
C304        C305   1.345       .  A
C304       H1091   1.082       .  S
C305        C306   1.378       .  A
C305       H1092   1.083       .  S
H307       C1088   1.083       .  S
H308       C1089   1.083   1_545  S
Zr309       O310   2.439       .  S
Zr309       O315   2.459       .  S
Zr309       O703   2.467       .  S
Zr309       O704   2.400       .  S
Zr309       O319   2.429       .  S
Zr309       O320   2.412       .  S
Zr309       O709   2.365       .  S
Zr309      O1102   2.370       .  S
O310        H366   0.991       .  S
O310        H374   0.989       .  S
O311       Zr701   2.471       .  S
O311       C1115   1.295   1_556  A
O312       Zr701   2.403   1_554  S
O312        C333   1.280       .  A
O313       Zr323   2.447   1_565  S
O313       C1116   1.288       .  A
O314      Zr1890   2.430       .  S
O314        C333   1.281       .  A
O315        C332   1.285       .  A
O316       Zr324   2.433   1_554  S
O316        C331   1.278       .  A
O317       Zr701   2.362   1_554  S
O317      Zr1890   2.373       .  S
O317      Zr1108   2.366   1_554  S
O318       Zr323   2.394       .  S
O318      Zr1093   2.370   1_545  S
O318       Zr716   2.391       .  S
O318        H353   0.966       .  S
O319      Zr2282   2.410       .  S
O319      Zr1907   2.407       .  S
O319        H748   0.965       .  S
O320      Zr1107   2.381       .  S
O320      Zr1907   2.397       .  S
Zr321       O738   2.441       .  S
Zr321       O340   2.458   1_545  S
Zr321       O348   2.403       .  S
Zr321       O728   2.489       .  S
Zr321       O330   2.386   1_545  S
Zr321      O1895   2.420       .  S
Zr321       O720   2.406       .  S
Zr321      O1113   2.372   1_545  S
Zr322       O341   2.438   1_655  S
Zr322       O334   2.437       .  S
Zr322       O335   2.412   1_655  S
Zr322      O1882   2.428       .  S
Zr322      O1885   2.374       .  S
Zr322      O2279   2.411       .  S
Zr322      O1112   2.389   1_655  S
Zr322       O721   2.407   1_655  S
Zr323       O325   2.438   1_545  S
Zr323       O347   2.438       .  S
Zr323      O1917   2.431       .  S
Zr323       O327   2.400       .  S
Zr323      O1104   2.380   1_545  S
Zr323      O1898   2.382   1_545  S
Zr324       O351   2.432       .  S
Zr324       O326   2.456   1_556  S
Zr324       O742   2.440       .  S
Zr324      O1101   2.366   1_556  S
Zr324       O710   2.393       .  S
Zr324       O719   2.403       .  S
Zr324      O1896   2.385   1_556  S
O325        H362   0.990   1_565  S
O326        H357   0.989       .  S
O326        H371   0.988       .  S
O327      Zr1889   2.419       .  S
O327       Zr716   2.401       .  S
O328       Zr713   2.399   1_554  S
O328      Zr1106   2.388   1_445  S
O328      Zr1892   2.387   1_454  S
O328        H354   0.962       .  S
O329       Zr339   2.383       .  S
O329      Zr1105   2.373       .  S
O329       Zr714   2.408   1_455  S
O330      Zr1891   2.382   1_565  S
O330      Zr1123   2.372       .  S
O330        H355   0.965       .  S
C331       O1095   1.296   1_544  A
C332       O1097   1.289       .  A
C333        C384   1.464       .  S
O334       H1938   0.990       .  S
O335       C1121   1.285       .  A
O336       Zr713   2.492   1_554  S
O336        C337   1.291       .  A
C337       O1119   1.283       .  A
O338       Zr339   2.437       .  S
O338        H367   0.991       .  S
Zr339       O342   2.436       .  S
Zr339       O343   2.442       .  S
Zr339       O344   2.438       .  S
Zr339      O1887   2.407   1_455  S
Zr339      O1888   2.397   1_455  S
Zr339      O1114   2.371       .  S
O340       C1129   1.291       .  A
O341        H358   0.990       .  S
O341        H373   0.990       .  S
O342        H359   0.990       .  S
O343        H363   0.991       .  S
O343        H372   0.990       .  S
O344        C345   1.274       .  A
C345       O1124   1.291       .  A
O346       Zr713   2.439   1_554  S
O346        H365   0.991   1_554  S
O346        H369   0.989       .  S
O347        H361   0.990       .  S
O347        H368   0.989       .  S
O348        C352   1.280       .  A
O349      Zr1891   2.430       .  S
O349        C352   1.282       .  A
O350       Zr716   2.436       .  S
O350        H752   0.990       .  S
O351        H364   0.991       .  S
H356        O711   0.965       .  S
H360        O742   0.990       .  S
H370       O1902   0.990       .  S
C375        C376   1.445       .  A
C375        C380   1.404       .  A
C376        C377   1.445       .  A
C376        H381   1.082       .  S
C377        C378   1.414       .  A
C378        C379   1.394       .  A
C378        H382   1.074       .  S
C379        C380   1.390       .  A
C379        C388   1.499       .  S
C380        H383   1.076       .  S
C384        C385   1.388       .  A
C384        C389   1.397       .  A
C385        C386   1.389       .  A
C385        H390   1.084       .  S
C386        C387   1.397       .  A
C387        C388   1.415       .  A
C387        H391   1.081       .  S
C388        C389   1.417       .  A
C389        H392   1.079       .  S
N393        C397   1.390       .  A
N393        C394   1.383       .  A
N393        C473   1.473       .  S
C394        C395   1.383       .  A
C394        C430   1.492       .  S
C395        C396   1.346       .  A
C395        H398   1.083       .  S
C396        C397   1.378       .  A
C396        H399   1.083       .  S
C397        C625   1.498       .  S
N400        C404   1.390       .  A
N400        C401   1.382       .  A
N400        C584   1.479       .  S
C401        C402   1.391       .  A
C401        C435   1.502       .  S
C402        C403   1.342       .  A
C402        H405   1.083       .  S
C403        C404   1.375       .  A
C403        H406   1.083       .  S
C404        C639   1.487       .  S
Zr407       O408   2.438       .  S
Zr407       O409   2.468       .  S
Zr407       O410   2.409       .  S
Zr407       O413   2.458       .  S
Zr407       O415   2.360       .  S
Zr407       O416   2.371       .  S
Zr407       O417   2.423       .  S
Zr407       O418   2.410       .  S
O408        H464   0.990       .  S
O408        H472   0.990       .  S
O409        C429   1.295       .  A
O410        C431   1.281       .  A
O411       Zr421   2.453       .  S
O411        C430   1.289       .  A
O412       Zr420   2.425       .  S
O412        C431   1.282       .  A
O413        C430   1.286       .  A
O414       Zr422   2.435       .  S
O414        C429   1.280       .  A
O415       Zr420   2.371       .  S
O415       Zr422   2.365       .  S
O416       Zr421   2.391       .  S
O416       Zr422   2.391       .  S
O416        H451   0.967       .  S
O417       Zr420   2.411       .  S
O417       Zr437   2.407       .  S
O417        H454   0.965       .  S
O418       Zr421   2.380       .  S
O418       Zr437   2.395       .  S
Zr419       O444   2.439       .  S
Zr419       O438   2.454       .  S
Zr419       O446   2.402       .  S
Zr419       O434   2.495       .  S
Zr419       O425   2.420       .  S
Zr419       O426   2.399       .  S
Zr419       O427   2.369       .  S
Zr419       O428   2.388       .  S
Zr420       O439   2.436       .  S
Zr420       O432   2.437       .  S
Zr420       O433   2.410       .  S
Zr420       O426   2.386       .  S
Zr420       O427   2.408       .  S
Zr421       O423   2.438       .  S
Zr421       O445   2.438       .  S
Zr421       O447   2.432       .  S
Zr421       O425   2.402       .  S
Zr421       O428   2.385       .  S
Zr422       O448   2.437       .  S
Zr422       O449   2.431       .  S
Zr422       O424   2.441       .  S
Zr422       O425   2.398       .  S
Zr422       O426   2.390       .  S
O423        H460   0.990       .  S
O424        H455   0.990       .  S
O424        H469   0.988       .  S
O426        H452   0.962       .  S
O427       Zr437   2.384       .  S
O428       Zr437   2.370       .  S
O428        H453   0.964       .  S
C429        C593   1.497       .  S
C431        C482   1.462       .  S
O432        H468   0.990       .  S
O433        C435   1.284       .  A
O434        C435   1.291       .  A
O436       Zr437   2.437       .  S
O436        H465   0.991       .  S
Zr437       O440   2.436       .  S
Zr437       O441   2.442       .  S
Zr437       O442   2.440       .  S
O438        C443   1.290       .  A
O439        H456   0.990       .  S
O439        H471   0.990       .  S
O440        H457   0.990       .  S
O441        H461   0.991       .  S
O441        H470   0.989       .  S
O442        C443   1.274       .  A
C443        C600   1.487       .  S
O444        H463   0.991       .  S
O444        H467   0.990       .  S
O445        H459   0.990       .  S
O445        H466   0.990       .  S
O446        C450   1.280       .  A
O447        C450   1.283       .  A
O448        H458   0.990       .  S
O449        H462   0.991       .  S
C450        C573   1.466       .  S
C473        C474   1.405       .  A
C473        C478   1.445       .  A
C474        C475   1.389       .  A
C474        H479   1.076       .  S
C475        C476   1.395       .  A
C476        C477   1.415       .  A
C476        H480   1.074       .  S
C477        N491   1.486       .  S
C477        C478   1.445       .  A
C478        H481   1.082       .  S
C482        C483   1.399       .  A
C482        C487   1.388       .  A
C483        C484   1.417       .  A
C483        H488   1.079       .  S
C484        C485   1.415       .  A
C485        C486   1.397       .  A
C485        H489   1.081       .  S
C486        C487   1.391       .  A
C486        C548   1.465       .  S
C487        H490   1.085       .  S
N491        C495   1.389       .  A
N491        C492   1.386       .  A
C492        C493   1.392       .  A
C492        C533   1.521       .  S
C493        C494   1.346       .  A
C493       H1280   1.083       .  S
C494        C495   1.375       .  A
C494       H1281   1.083       .  S
C495        C737   1.490       .  S
H496       C1277   1.083       .  S
H497       C1278   1.083       .  S
N498        C502   1.392       .  A
N498        C499   1.388       .  A
N498        C580   1.482       .  S
C499       C1284   1.386       .  A
C499        C528   1.510       .  S
C500       C1283   1.386       .  A
C500        C501   1.346       .  A
C500        H503   1.084       .  S
C501       C1286   1.377       .  A
C501        H504   1.083       .  S
C502       C1285   1.376       .  A
C502        C723   1.501       .  S
Zr505       O506   2.440       .  S
Zr505       O507   2.465   1_545  S
Zr505       O508   2.404       .  S
Zr505       O511   2.483       .  S
Zr505       O513   2.373   1_545  S
Zr505      O1298   2.367   1_545  S
Zr505       O515   2.433       .  S
Zr505       O516   2.408       .  S
O506        H562   0.991       .  S
O506        H570   0.989       .  S
O507       C1311   1.294       .  A
O508        C529   1.280       .  A
O509       Zr519   2.453       .  S
O509       C1312   1.290       .  A
O510       Zr518   2.419       .  S
O510        C529   1.281       .  A
O511        C528   1.289       .  A
O512       Zr520   2.446       .  S
O512        C527   1.280       .  A
O513       Zr518   2.387   1_565  S
O513      Zr1304   2.366       .  S
O514      Zr1289   2.368       .  S
O514       Zr519   2.392       .  S
O514       Zr520   2.393       .  S
O514        H549   0.966       .  S
O515       Zr518   2.415       .  S
O515       Zr535   2.403       .  S
O515        H552   0.965       .  S
O516      Zr1303   2.376   1_545  S
O516       Zr535   2.397       .  S
Zr517       O542   2.439       .  S
Zr517       O536   2.456       .  S
Zr517       O544   2.407       .  S
Zr517       O532   2.509       .  S
Zr517       O523   2.421       .  S
Zr517       O524   2.398       .  S
Zr517      O1309   2.367       .  S
Zr517       O526   2.389       .  S
Zr518       O537   2.437       .  S
Zr518       O530   2.436   1_545  S
Zr518       O531   2.421   1_545  S
Zr518      O1308   2.387   1_545  S
Zr518       O525   2.401       .  S
Zr519       O521   2.437       .  S
Zr519       O543   2.438       .  S
Zr519       O545   2.420       .  S
Zr519      O1300   2.374       .  S
Zr519       O523   2.403       .  S
Zr519       O526   2.390       .  S
Zr520       O546   2.439       .  S
Zr520       O547   2.431       .  S
Zr520       O522   2.454       .  S
Zr520      O1297   2.366       .  S
Zr520       O523   2.399       .  S
Zr520       O524   2.394       .  S
O521        H558   0.990       .  S
O522        H553   0.989       .  S
O522        H567   0.989       .  S
O524      Zr1302   2.384       .  S
O524        H550   0.963       .  S
O525      Zr1301   2.367   1_545  S
O525       Zr535   2.385       .  S
O526      Zr1319   2.370       .  S
O526        H551   0.964       .  S
C527        C698   1.501       .  S
C527       O1291   1.294       .  A
C528       O1293   1.290       .  A
C529        C571   1.461       .  S
O530        H566   0.991       .  S
O531       C1317   1.287       .  A
O532        C533   1.293       .  A
C533       O1315   1.288       .  A
O534       Zr535   2.432       .  S
O534        H563   0.991       .  S
Zr535       O538   2.433       .  S
Zr535       O539   2.442       .  S
Zr535       O540   2.435       .  S
Zr535      O1310   2.370       .  S
O536       C1325   1.291       .  A
O537        H554   0.990       .  S
O537        H569   0.990       .  S
O538        H555   0.990       .  S
O539        H559   0.990       .  S
O539        H568   0.991       .  S
O540        C541   1.274       .  A
C541        C691   1.486       .  S
C541       O1320   1.291   1_545  A
O542        H561   0.990       .  S
O542        H565   0.989       .  S
O543        H557   0.990       .  S
O543        H564   0.990       .  S
O544        C548   1.281       .  A
O545        C548   1.282       .  A
O546        H556   0.990       .  S
O547        H560   0.991       .  S
C571        C572   1.390       .  A
C571        C576   1.398       .  A
C572        C573   1.388       .  A
C572        H577   1.084       .  S
C573        C574   1.395       .  A
C574        C575   1.417       .  A
C574        H578   1.078       .  S
C575        C576   1.415       .  A
C575        C582   1.500       .  S
C576        H579   1.080       .  S
C580        C585   1.448       .  A
C581        C582   1.394       .  A
C581        H586   1.074       .  S
C582        C583   1.390       .  A
C583        H587   1.074       .  S
C584        C585   1.446       .  A
C585        H588   1.082       .  S
N589        C593   1.391       .  A
N589        C590   1.388       .  A
N589        C678   1.480       .  S
C590        C591   1.384       .  A
C590        C626   1.504       .  S
C591        C592   1.343       .  A
C591        H594   1.083       .  S
C592        C593   1.377       .  A
C592        H595   1.083       .  S
N596        C600   1.388       .  A
N596        C597   1.385       .  A
N596        C769   1.485       .  S
C597        C598   1.392       .  A
C597        C631   1.520       .  S
C598        C599   1.346       .  A
C598        H601   1.083       .  S
C599        C600   1.375       .  A
C599        H602   1.083       .  S
Zr603       O605   2.464       .  S
Zr603       O606   2.404       .  S
Zr603       O611   2.371       .  S
Zr603       O612   2.368   1_556  S
Zr603      O2181   2.431       .  S
O604        H660   0.991       .  S
O604        H668   0.989       .  S
O605        C625   1.294       .  A
O606        C627   1.281       .  A
O607       Zr617   2.455   1_455  S
O607        C626   1.290       .  A
O608      Zr2184   2.418   1_455  S
O608        C627   1.280       .  A
O609        C626   1.288       .  A
O610       Zr618   2.441       .  S
O610        C625   1.279       .  A
O611      Zr2184   2.385   1_455  S
O611       Zr618   2.366       .  S
O612       Zr618   2.394   1_554  S
O613      Zr2171   2.432       .  S
O613       Zr616   2.417       .  S
O613        H650   0.964       .  S
O614       Zr617   2.371   1_455  S
O614      Zr2201   2.396   1_455  S
Zr615       O640   2.440       .  S
Zr615       O630   2.512       .  S
Zr615       O621   2.421   1_556  S
Zr615       O622   2.395       .  S
Zr615       O623   2.367       .  S
Zr616       O635   2.437       .  S
Zr616       O628   2.436       .  S
Zr616      O2176   2.414       .  S
Zr616       O629   2.423       .  S
Zr616      O2179   2.385       .  S
Zr616       O622   2.384       .  S
Zr616       O623   2.404       .  S
Zr617       O619   2.436       .  S
Zr617       O641   2.438   1_655  S
Zr617      O2211   2.416       .  S
Zr617      O1797   2.403       .  S
Zr617      O2192   2.390       .  S
Zr618       O644   2.437   1_556  S
Zr618       O645   2.429       .  S
Zr618       O620   2.452       .  S
Zr618      O2189   2.396   1_456  S
Zr618      O2190   2.390   1_455  S
O619        H656   0.990       .  S
O620        H651   0.988       .  S
O620        H665   0.989       .  S
O621      Zr1793   2.402       .  S
O621      Zr2186   2.397   1_554  S
O622      Zr2186   2.390       .  S
O622        H648   0.963       .  S
O624      Zr2185   2.388       .  S
O624       Zr633   2.368       .  S
O624        H649   0.964       .  S
C627        C671   1.461       .  S
O628       H2232   0.991       .  S
O629        C631   1.287       .  A
O630        C631   1.294       .  A
O632       Zr633   2.436       .  S
O632        H661   0.991       .  S
Zr633       O637   2.442       .  S
Zr633       O638   2.437       .  S
Zr633      O2182   2.400       .  S
O634        C639   1.291       .  A
O635        H652   0.990       .  S
O635        H667   0.990       .  S
O637        H657   0.990       .  S
O637        H666   0.991       .  S
O638        C639   1.274       .  A
O640        H659   0.990       .  S
O640        H663   0.990       .  S
O641        H655   0.990       .  S
O641        H662   0.990       .  S
O642        C646   1.281       .  A
O643      Zr2185   2.412       .  S
O643        C646   1.281       .  A
O644        H654   0.990       .  S
O645       H2226   0.991   1_455  S
C646        C778   1.462       .  S
H658       O2213   0.991       .  S
H664       O2196   0.991       .  S
C669        C670   1.387       .  A
C669        C674   1.395       .  A
C669        C744   1.465       .  S
C670        C671   1.389       .  A
C670        H675   1.085       .  S
C671        C672   1.398       .  A
C672        C673   1.416       .  A
C672        H676   1.079       .  S
C673        C674   1.419       .  A
C673        C682   1.504       .  S
C674        H677   1.077       .  S
C678        C679   1.446       .  A
C678        C683   1.411       .  A
C679        C680   1.445       .  A
C679        H684   1.082       .  S
C680        N687   1.479       .  S
C680        C681   1.406       .  A
C681        C682   1.392       .  A
C681        H685   1.072       .  S
C682        C683   1.396       .  A
C683        H686   1.074       .  S
N687        C691   1.389       .  A
N687        C688   1.382       .  A
C688       C1473   1.390       .  A
C688        C729   1.501       .  S
C689       C1472   1.390       .  A
C689        C690   1.341       .  A
C689        H692   1.083       .  S
C690       C1475   1.375       .  A
C690        H693   1.083       .  S
C691       C1474   1.376       .  A
N694        C698   1.391       .  A
N694        C695   1.384       .  A
N694        C767   1.473       .  S
C695        C696   1.384       .  A
C695        C724   1.495       .  S
C696        C697   1.346       .  A
C696       H1483   1.083       .  S
C697        C698   1.378       .  A
C697       H1484   1.083       .  S
H699       C1480   1.082       .  S
H700       C1481   1.083   1_545  S
Zr701       O702   2.441       .  S
Zr701       O707   2.465       .  S
Zr701      O1494   2.369       .  S
Zr701       O711   2.429   1_556  S
Zr701       O712   2.414       .  S
O702        H758   0.991       .  S
O702        H766   0.990       .  S
O703       C1507   1.294       .  A
O704        C725   1.280       .  A
O705       Zr715   2.446   1_565  S
O705       C1508   1.288       .  A
O706      Zr2282   2.429       .  S
O706        C725   1.281       .  A
O707        C724   1.287       .  A
O708       Zr716   2.439       .  S
O708        C723   1.279       .  A
O709      Zr2282   2.375       .  S
O709      Zr1500   2.363       .  S
O710      Zr1485   2.368   1_545  S
O710       Zr715   2.390       .  S
O710        H745   0.965       .  S
O711      Zr1890   2.411       .  S
O711      Zr2299   2.408   1_554  S
O712      Zr1499   2.384       .  S
O712      Zr2299   2.397       .  S
Zr713       O732   2.457   1_545  S
Zr713       O740   2.401       .  S
Zr713      O2287   2.420       .  S
Zr713      O1505   2.369   1_546  S
Zr713       O722   2.386   1_545  S
Zr714       O733   2.436   1_655  S
Zr714       O726   2.435       .  S
Zr714      O2274   2.432       .  S
Zr714       O727   2.405   1_655  S
Zr714      O2277   2.374       .  S
Zr714      O1887   2.409       .  S
Zr714      O1504   2.393   1_655  S
Zr715       O717   2.436   1_545  S
Zr715       O739   2.438       .  S
Zr715      O2309   2.430       .  S
Zr715      O1496   2.381   1_545  S
Zr715       O719   2.401       .  S
Zr715      O2290   2.381   1_545  S
Zr716       O743   2.429       .  S
Zr716       O718   2.453       .  S
Zr716      O1493   2.365       .  S
Zr716      O2288   2.388       .  S
O717        H754   0.990   1_565  S
O718        H749   0.989       .  S
O718        H763   0.988       .  S
O719      Zr2281   2.420       .  S
O720      Zr1498   2.390   1_445  S
O720      Zr2284   2.388   1_455  S
O720        H746   0.961       .  S
O721      Zr1497   2.370   1_554  S
O721       Zr731   2.382   1_554  S
O722      Zr2283   2.381   1_565  S
O722      Zr1515   2.372       .  S
O722        H747   0.965       .  S
C723       O1487   1.297   1_545  A
C724       O1489   1.290       .  A
C725        C776   1.462       .  S
O726       H2330   0.990       .  S
O727       C1513   1.283       .  A
O728        C729   1.290       .  A
C729       O1511   1.286       .  A
O730       Zr731   2.436       .  S
O730        H759   0.991       .  S
Zr731       O734   2.437   1_556  S
Zr731       O735   2.442       .  S
Zr731       O736   2.440       .  S
Zr731      O2279   2.407   1_456  S
Zr731      O2280   2.397   1_455  S
Zr731      O1506   2.371       .  S
O732       C1521   1.291       .  A
O733        H750   0.990       .  S
O733        H765   0.990       .  S
O734        H751   0.990       .  S
O735        H755   0.991       .  S
O735        H764   0.989       .  S
O736        C737   1.275       .  A
C737       O1516   1.292       .  A
O738        H757   0.991       .  S
O738        H761   0.989       .  S
O739        H753   0.990       .  S
O739        H760   0.989       .  S
O740        C744   1.280       .  A
O741      Zr2283   2.431       .  S
O741        C744   1.283       .  A
O743        H756   0.991       .  S
H762       O2294   0.990       .  S
C767        C768   1.445       .  A
C767        C772   1.405       .  A
C768        C769   1.445       .  A
C768        H773   1.082       .  S
C769        C770   1.414       .  A
C770        C771   1.394       .  A
C770        H774   1.074       .  S
C771        C772   1.390       .  A
C771        C780   1.500       .  S
C772        H775   1.076       .  S
C776        C777   1.388       .  A
C776        C781   1.398       .  A
C777        C778   1.388       .  A
C777        H782   1.085       .  S
C778        C779   1.396       .  A
C779        C780   1.415       .  A
C779        H783   1.080       .  S
C780        C781   1.417       .  A
C781        H784   1.078       .  S
N785        C789   1.390       .  A
N785        C786   1.383       .  A
N785        C865   1.474       .  S
C786        C787   1.383       .  A
C786        C822   1.492       .  S
C787        C788   1.346       .  A
C787        H790   1.083       .  S
C788        C789   1.378       .  A
C788        H791   1.083       .  S
C789       C1017   1.498       .  S
N792        C796   1.390       .  A
N792        C793   1.382       .  A
N792        C976   1.480       .  S
C793        C794   1.390       .  A
C793        C827   1.500       .  S
C794        C795   1.341       .  A
C794        H797   1.083       .  S
C795        C796   1.375       .  A
C795        H798   1.083   1_554  S
C796       C1031   1.486       .  S
Zr799       O800   2.440       .  S
Zr799       O801   2.471       .  S
Zr799       O802   2.407       .  S
Zr799       O805   2.462       .  S
Zr799       O807   2.363       .  S
Zr799       O808   2.373       .  S
Zr799       O809   2.429       .  S
Zr799       O810   2.412       .  S
O800        H856   0.990       .  S
O800        H864   0.990       .  S
O801        C821   1.295       .  A
O802        C823   1.281       .  A
O803       Zr813   2.449       .  S
O803        C822   1.288       .  A
O804       Zr812   2.428       .  S
O804        C823   1.282       .  A
O805        C822   1.286       .  A
O806       Zr814   2.436       .  S
O806        C821   1.279       .  A
O807       Zr812   2.374       .  S
O807       Zr814   2.364       .  S
O808       Zr813   2.393       .  S
O808       Zr814   2.392       .  S
O808        H843   0.966       .  S
O809       Zr812   2.412       .  S
O809       Zr829   2.412       .  S
O809        H846   0.965       .  S
O810       Zr813   2.379       .  S
O810       Zr829   2.396       .  S
Zr811       O836   2.439       .  S
Zr811       O830   2.458       .  S
Zr811       O838   2.401       .  S
Zr811       O826   2.489       .  S
Zr811       O817   2.419       .  S
Zr811       O818   2.397       .  S
Zr811       O819   2.370       .  S
Zr811       O820   2.385       .  S
Zr812       O831   2.433       .  S
Zr812       O824   2.437       .  S
Zr812       O825   2.415       .  S
Zr812       O818   2.389       .  S
Zr812       O819   2.406       .  S
Zr813       O815   2.436       .  S
Zr813       O837   2.436       .  S
Zr813       O839   2.436       .  S
Zr813       O817   2.399       .  S
Zr813       O820   2.382       .  S
Zr814       O840   2.438       .  S
Zr814       O841   2.429       .  S
Zr814       O816   2.453       .  S
Zr814       O817   2.403       .  S
Zr814       O818   2.388       .  S
O815        H852   0.990       .  S
O816        H847   0.989       .  S
O816        H861   0.988       .  S
O818        H844   0.963       .  S
O819       Zr829   2.383       .  S
O820       Zr829   2.369       .  S
O820        H845   0.965       .  S
C821        C985   1.496       .  S
C823        C874   1.462       .  S
O824        H860   0.990       .  S
O825        C827   1.286       .  A
O826        C827   1.290       .  A
O828       Zr829   2.438       .  S
O828        H857   0.991       .  S
Zr829       O832   2.434       .  S
Zr829       O833   2.443       .  S
Zr829       O834   2.442       .  S
O830        C835   1.291       .  A
O831        H848   0.990       .  S
O831        H863   0.990       .  S
O832        H849   0.990       .  S
O833        H853   0.991       .  S
O833        H862   0.990       .  S
O834        C835   1.275       .  A
C835        C992   1.490       .  S
O836        H855   0.990       .  S
O836        H859   0.990       .  S
O837        H851   0.990       .  S
O837        H858   0.990       .  S
O838        C842   1.280       .  A
O839        C842   1.284       .  A
O840        H850   0.990       .  S
O841        H854   0.991       .  S
C842        C965   1.466       .  S
C865        C866   1.405       .  A
C865        C870   1.446       .  A
C866        C867   1.391       .  A
C866        H871   1.076       .  S
C867        C868   1.394       .  A
C867       C1268   1.501       .  S
C868        C869   1.413       .  A
C868        H872   1.074       .  S
C869        N883   1.485       .  S
C869        C870   1.445       .  A
C870        H873   1.082       .  S
C874        C875   1.398       .  A
C874        C879   1.386       .  A
C875        C876   1.419       .  A
C875        H880   1.078       .  S
C876        C877   1.416       .  A
C876       C1259   1.502   1_554  S
C877        C878   1.396       .  A
C877        H881   1.080       .  S
C878        C879   1.389       .  A
C878        C940   1.462       .  S
C879        H882   1.085       .  S
N883        C887   1.389       .  A
N883        C884   1.385       .  A
C884        C885   1.392       .  A
C884        C925   1.519       .  S
C885        C886   1.345       .  A
C886        C887   1.375       .  A
C887       C1129   1.488       .  S
N890        C894   1.390       .  A
N890        C891   1.389       .  A
N890        C972   1.482       .  S
C891        C920   1.508       .  S
C892        C893   1.344       .  A
C892        H895   1.083   1_545  S
C893        H896   1.083   1_544  S
C894       C1115   1.496       .  S
Zr897       O898   2.438       .  S
Zr897       O899   2.467       .  S
Zr897       O900   2.408       .  S
Zr897       O903   2.480       .  S
Zr897       O905   2.370       .  S
Zr897       O907   2.433       .  S
Zr897       O908   2.409       .  S
O898        H954   0.990       .  S
O898        H962   0.989       .  S
O900        C921   1.281       .  A
O901       Zr911   2.453   1_545  S
O902       Zr910   2.416       .  S
O902        C921   1.280       .  A
O903        C920   1.289       .  A
O904       Zr912   2.443       .  S
O904        C919   1.280       .  A
O905       Zr910   2.387       .  S
O906       Zr911   2.390       .  S
O906       Zr912   2.390       .  S
O906        H941   0.966       .  S
O907       Zr910   2.417       .  S
O907       Zr927   2.408       .  S
O907        H944   0.965       .  S
O908       Zr927   2.397       .  S
Zr909       O934   2.440       .  S
Zr909       O928   2.456       .  S
Zr909       O936   2.402       .  S
Zr909       O924   2.510       .  S
Zr909       O915   2.421       .  S
Zr909       O916   2.397       .  S
Zr909       O918   2.391   1_565  S
Zr910       O929   2.437       .  S
Zr910       O922   2.436       .  S
Zr910       O923   2.426       .  S
Zr910       O917   2.403       .  S
Zr911       O913   2.436       .  S
Zr911       O935   2.438       .  S
Zr911       O937   2.418       .  S
Zr911       O915   2.401       .  S
Zr911       O918   2.391   1_565  S
Zr912       O938   2.440       .  S
Zr912       O939   2.430       .  S
Zr912       O914   2.452       .  S
Zr912       O915   2.398       .  S
Zr912       O916   2.392       .  S
O913        H950   0.990       .  S
O914        H945   0.988       .  S
O914        H959   0.989       .  S
O916        H942   0.963       .  S
O917       Zr927   2.387       .  S
O918        H943   0.964       .  S
C919       C1090   1.498       .  S
C921        C963   1.461       .  S
O922        H958   0.991       .  S
O924        C925   1.293       .  A
O926       Zr927   2.438       .  S
O926        H955   0.991       .  S
Zr927       O930   2.433       .  S
Zr927       O931   2.443       .  S
Zr927       O932   2.433       .  S
O929        H946   0.990       .  S
O929        H961   0.990       .  S
O930        H947   0.991       .  S
O931        H951   0.990       .  S
O931        H960   0.991       .  S
O932        C933   1.273       .  A
C933       C1083   1.487       .  S
O934        H953   0.990       .  S
O934        H957   0.990       .  S
O935        H949   0.990       .  S
O935        H956   0.990       .  S
O936        C940   1.280       .  A
O937        C940   1.281       .  A
O938        H948   0.990       .  S
O939        H952   0.991       .  S
C963        C964   1.389       .  A
C963        C968   1.397       .  A
C964        C965   1.388       .  A
C964        H969   1.085       .  S
C965        C966   1.396       .  A
C966        C967   1.419       .  A
C966        H970   1.078       .  S
C967        C968   1.415       .  A
C967        C974   1.502       .  S
C968        H971   1.080       .  S
C972       C1365   1.412   1_554  A
C972        C977   1.447       .  A
C973       C1364   1.412       .  A
C973        C974   1.395       .  A
C973        H978   1.075       .  S
C974        C975   1.390       .  A
C975       C1368   1.405       .  A
C975        H979   1.074       .  S
C976       C1367   1.405   1_554  A
C976        C977   1.446       .  A
C977        H980   1.082       .  S
N981        C985   1.390       .  A
N981        C982   1.386       .  A
N981       C1070   1.481       .  S
C982        C983   1.386       .  A
C982       C1018   1.505       .  S
C983        C984   1.345       .  A
C983        H986   1.083       .  S
C984        C985   1.377       .  A
C984        H987   1.083       .  S
N988        C992   1.388       .  A
N988        C989   1.386       .  A
N988       C1161   1.486       .  S
C989        C990   1.392       .  A
C989       C1023   1.520       .  S
C990        C991   1.346       .  A
C990        H993   1.083       .  S
C991        C992   1.375       .  A
C991        H994   1.083       .  S
Zr995      O1388   2.437       .  S
Zr995       O997   2.465       .  S
Zr995       O998   2.410       .  S
Zr995      O1393   2.483       .  S
Zr995      O1003   2.369       .  S
Zr995      O1004   2.367       .  S
Zr995      O2573   2.430       .  S
Zr995      O1398   2.407       .  S
O996      Zr1387   2.438   1_554  S
O996       H1052   0.990   1_554  S
O996       H1060   0.989       .  S
O997       C1017   1.294       .  A
O998       C1019   1.281       .  A
O999      Zr1009   2.446   1_455  S
O999       C1018   1.289       .  A
O1000     Zr2576   2.411   1_455  S
O1000      C1019   1.279       .  A
O1001     Zr1387   2.480   1_554  S
O1001      C1018   1.289       .  A
O1002     Zr1010   2.441       .  S
O1002      C1017   1.280       .  A
O1003     Zr2576   2.383   1_455  S
O1003     Zr1010   2.366       .  S
O1004     Zr1401   2.392   1_455  S
O1004     Zr1010   2.392       .  S
O1004      H1431   0.966       .  S
O1005     Zr2563   2.433       .  S
O1005     Zr1008   2.416       .  S
O1005     Zr1417   2.405       .  S
O1005      H1042   0.964       .  S
O1006     Zr1387   2.408   1_554  S
O1006     Zr1009   2.375   1_455  S
O1006     Zr2593   2.395   1_454  S
Zr1007     O1032   2.439       .  S
Zr1007     O1418   2.460       .  S
Zr1007     O1426   2.408       .  S
Zr1007     O1022   2.512       .  S
Zr1007     O1013   2.421       .  S
Zr1007     O1014   2.398       .  S
Zr1007     O1015   2.366       .  S
Zr1007     O1408   2.389       .  S
Zr1008     O1027   2.437       .  S
Zr1008     O1020   2.434       .  S
Zr1008     O2568   2.417       .  S
Zr1008     O1021   2.422       .  S
Zr1008     O2571   2.385       .  S
Zr1008     O1014   2.385       .  S
Zr1008     O1015   2.403       .  S
Zr1009     O1011   2.436       .  S
Zr1009     O1033   2.439   1_655  S
Zr1009     O2603   2.414       .  S
Zr1009     O1396   2.389   1_655  S
Zr1009     O2973   2.402       .  S
Zr1009     O2584   2.389       .  S
Zr1010     O1036   2.438       .  S
Zr1010     O1037   2.431       .  S
Zr1010     O1012   2.454       .  S
Zr1010     O2581   2.396   1_455  S
Zr1010     O2582   2.388   1_455  S
O1011      H1048   0.990       .  S
O1012      H1043   0.989       .  S
O1012      H1057   0.989       .  S
O1013     Zr2969   2.404       .  S
O1013     Zr2578   2.397       .  S
O1014     Zr2578   2.392       .  S
O1014      H1040   0.963       .  S
O1015     Zr1417   2.386       .  S
O1016     Zr1399   2.389   1_554  S
O1016     Zr2577   2.385       .  S
O1016     Zr1025   2.371   1_554  S
O1016      H1041   0.964       .  S
C1019      C1063   1.460       .  S
O1020      H2624   0.991       .  S
O1021      C1023   1.287       .  A
O1022      C1023   1.294       .  A
O1024     Zr1025   2.435   1_554  S
O1024      H1053   0.991       .  S
Zr1025     O1420   2.434       .  S
Zr1025     O1029   2.443   1_556  S
Zr1025     O1030   2.436   1_556  S
Zr1025     O1397   2.402       .  S
Zr1025     O2574   2.395   1_556  S
Zr1025     O1407   2.388       .  S
O1026     Zr1399   2.457       .  S
O1026      C1031   1.292   1_556  A
O1027      H1044   0.990       .  S
O1027      H1059   0.990       .  S
O1028     Zr1417   2.436       .  S
O1028      H1437   0.990       .  S
O1029      H1049   0.991   1_554  S
O1029      H1058   0.990       .  S
O1030      C1031   1.274       .  A
O1032      H1051   0.991       .  S
O1032      H1055   0.989       .  S
O1033      H1047   0.990       .  S
O1033      H1054   0.990       .  S
O1034     Zr1399   2.407   1_554  S
O1034      C1038   1.281       .  A
O1035     Zr2577   2.419       .  S
O1035      C1038   1.282       .  A
O1036      H1046   0.990       .  S
O1037      H2618   0.991   1_455  S
C1038      C1170   1.463       .  S
H1039      O1396   0.966       .  S
H1045      O1420   0.990       .  S
H1050      O2605   0.991       .  S
H1056      O2588   0.991       .  S
C1061      C1062   1.386       .  A
C1061      C1066   1.395       .  A
C1061      C1136   1.463       .  S
C1062      C1063   1.390       .  A
C1062      H1067   1.085       .  S
C1063      C1064   1.398       .  A
C1064      C1065   1.415       .  A
C1064      H1068   1.080       .  S
C1065      C1066   1.416       .  A
C1065      C1074   1.500       .  S
C1066      H1069   1.078       .  S
C1070      C1071   1.448       .  A
C1070      C1075   1.410       .  A
C1071      C1072   1.446       .  A
C1071      H1076   1.082       .  S
C1072      N1079   1.479       .  S
C1072      C1073   1.404       .  A
C1073      C1074   1.391       .  A
C1073      H1077   1.074       .  S
C1074      C1075   1.393       .  A
C1075      H1078   1.074       .  S
N1079      C1083   1.392       .  A
N1079      C1080   1.382       .  A
C1080      C1121   1.501       .  S
C1081      C1082   1.341       .  A
C1081      H1084   1.084   1_545  S
C1082      H1085   1.083   1_545  S
N1086      C1090   1.390       .  A
N1086      C1087   1.383       .  A
N1086      C1159   1.475       .  S
C1087      C1088   1.384       .  A
C1087      C1116   1.493       .  S
C1088      C1089   1.347       .  A
C1089      C1090   1.378       .  A
Zr1093     O1094   2.440       .  S
Zr1093     O1487   2.479       .  S
Zr1093     O1488   2.407       .  S
Zr1093     O1099   2.467       .  S
Zr1093     O1493   2.364   1_565  S
Zr1093     O1103   2.430       .  S
Zr1093     O1104   2.415       .  S
O1094      H1150   0.991       .  S
O1094      H1158   0.989       .  S
O1095     Zr1485   2.471       .  S
O1096     Zr1485   2.403   1_554  S
O1096      C1117   1.279       .  A
O1097     Zr1107   2.449       .  S
O1098     Zr2674   2.431       .  S
O1098      C1117   1.283       .  A
O1099      C1116   1.287       .  A
O1100     Zr1108   2.431   1_554  S
O1100      C1115   1.279       .  A
O1101     Zr1485   2.366   1_544  S
O1101     Zr2674   2.375   1_545  S
O1102     Zr1107   2.391       .  S
O1102     Zr1500   2.391       .  S
O1102      H1137   0.966       .  S
O1103     Zr3066   2.409       .  S
O1103     Zr2691   2.408       .  S
O1103      H1532   0.965       .  S
O1104     Zr2691   2.398       .  S
Zr1105     O1522   2.440       .  S
Zr1105     O1124   2.461       .  S
Zr1105     O1132   2.409       .  S
Zr1105     O1512   2.492       .  S
Zr1105     O2679   2.420       .  S
Zr1105     O1504   2.401       .  S
Zr1105     O1114   2.383       .  S
Zr1106     O1125   2.435   1_655  S
Zr1106     O1118   2.436   1_565  S
Zr1106     O2666   2.423       .  S
Zr1106     O1119   2.405   1_665  S
Zr1106     O2669   2.372   1_565  S
Zr1106     O3063   2.408       .  S
Zr1106     O1505   2.406   1_655  S
Zr1107     O1109   2.436       .  S
Zr1107     O1131   2.437       .  S
Zr1107     O2701   2.431       .  S
Zr1107     O1111   2.400       .  S
Zr1107     O2682   2.380       .  S
Zr1108     O1526   2.438       .  S
Zr1108     O1135   2.432       .  S
Zr1108     O1110   2.443   1_556  S
Zr1108     O1494   2.389       .  S
Zr1108     O1503   2.399       .  S
Zr1108     O2680   2.385   1_556  S
O1109      H1146   0.990       .  S
O1110      H1141   0.989       .  S
O1110      H1155   0.989       .  S
O1111     Zr2673   2.420       .  S
O1111     Zr1500   2.403       .  S
O1112     Zr1497   2.404   1_554  S
O1112     Zr2676   2.388   1_454  S
O1112      H1138   0.963       .  S
O1113     Zr1498   2.407   1_455  S
O1113     Zr1123   2.383       .  S
O1114     Zr2675   2.379       .  S
O1114      H1139   0.965       .  S
C1117      C1168   1.462       .  S
O1118      H2722   0.990       .  S
O1120     Zr1497   2.493   1_554  S
O1120      C1121   1.291       .  A
O1122     Zr1123   2.439       .  S
O1122      H1151   0.991       .  S
Zr1123     O1126   2.434       .  S
Zr1123     O1127   2.440       .  S
Zr1123     O1128   2.439       .  S
Zr1123     O2671   2.406   1_455  S
Zr1123     O2672   2.394   1_455  S
O1125      H1142   0.990       .  S
O1125      H1157   0.990       .  S
O1126      H1143   0.990       .  S
O1127      H1147   0.991       .  S
O1127      H1156   0.989       .  S
O1128      C1129   1.274       .  A
O1130     Zr1497   2.439   1_554  S
O1130      H1149   0.990   1_554  S
O1130      H1153   0.990       .  S
O1131      H1145   0.991       .  S
O1131      H1152   0.989       .  S
O1132      C1136   1.281       .  A
O1133     Zr2675   2.422       .  S
O1133      C1136   1.282       .  A
O1134     Zr1500   2.439       .  S
O1134      H1536   0.990       .  S
O1135      H1148   0.991   1_556  S
H1140      O1495   0.965       .  S
H1144      O1526   0.990       .  S
H1154      O2686   0.990       .  S
C1159      C1160   1.446       .  A
C1159      C1164   1.403       .  A
C1160      C1161   1.447       .  A
C1160      H1165   1.082       .  S
C1161      C1162   1.415       .  A
C1162      C1163   1.396       .  A
C1162      H1166   1.074       .  S
C1163      C1164   1.389       .  A
C1163      C1172   1.500       .  S
C1164      H1167   1.075       .  S
C1168      C1169   1.388       .  A
C1168      C1173   1.397       .  A
C1169      C1170   1.389       .  A
C1169      H1174   1.085       .  S
C1170      C1171   1.396       .  A
C1171      C1172   1.415       .  A
C1171      H1175   1.080       .  S
C1172      C1173   1.419       .  A
C1173      H1176   1.078       .  S
N1177      C1181   1.390       .  A
N1177      C1178   1.381       .  A
N1177      C1257   1.474       .  S
C1178      C1179   1.383       .  A
C1178      C1214   1.490       .  S
C1179      C1180   1.346       .  A
C1179      H1182   1.082       .  S
C1180      C1181   1.378       .  A
C1180      H1183   1.083       .  S
C1181      C1409   1.496       .  S
N1184      C1188   1.391       .  A
N1184      C1185   1.381       .  A
N1184      C1368   1.479       .  S
C1185      C1186   1.391       .  A
C1185      C1219   1.502       .  S
C1186      C1187   1.343       .  A
C1186      H1189   1.083       .  S
C1187      C1188   1.375       .  A
C1187      H1190   1.083       .  S
C1188      C1423   1.489       .  S
Zr1191     O1192   2.440       .  S
Zr1191     O1193   2.469       .  S
Zr1191     O1194   2.405       .  S
Zr1191     O1197   2.458       .  S
Zr1191     O1199   2.360       .  S
Zr1191     O1200   2.373       .  S
Zr1191     O1201   2.425       .  S
Zr1191     O1202   2.411       .  S
O1192      H1248   0.990       .  S
O1192      H1256   0.990       .  S
O1193      C1213   1.295       .  A
O1194      C1215   1.280       .  A
O1195     Zr1205   2.452       .  S
O1195      C1214   1.288       .  A
O1196     Zr1204   2.428       .  S
O1196      C1215   1.281       .  A
O1197      C1214   1.286       .  A
O1198     Zr1206   2.431       .  S
O1198      C1213   1.279       .  A
O1199     Zr1204   2.373       .  S
O1199     Zr1206   2.366       .  S
O1200     Zr1205   2.393       .  S
O1200     Zr1206   2.391       .  S
O1200      H1235   0.967       .  S
O1201     Zr1204   2.411       .  S
O1201     Zr1221   2.409       .  S
O1201      H1238   0.965       .  S
O1202     Zr1205   2.380       .  S
O1202     Zr1221   2.394       .  S
Zr1203     O1228   2.439       .  S
Zr1203     O1222   2.456       .  S
Zr1203     O1230   2.402       .  S
Zr1203     O1218   2.497       .  S
Zr1203     O1209   2.422       .  S
Zr1203     O1210   2.400       .  S
Zr1203     O1211   2.370       .  S
Zr1203     O1212   2.387       .  S
Zr1204     O1223   2.436       .  S
Zr1204     O1216   2.437       .  S
Zr1204     O1217   2.408       .  S
Zr1204     O1210   2.389       .  S
Zr1204     O1211   2.409       .  S
Zr1205     O1207   2.437       .  S
Zr1205     O1229   2.439       .  S
Zr1205     O1231   2.434       .  S
Zr1205     O1209   2.403       .  S
Zr1205     O1212   2.384       .  S
Zr1206     O1232   2.438       .  S
Zr1206     O1233   2.433       .  S
Zr1206     O1208   2.442       .  S
Zr1206     O1209   2.401       .  S
Zr1206     O1210   2.387       .  S
O1207      H1244   0.990       .  S
O1208      H1239   0.989       .  S
O1208      H1253   0.989       .  S
O1210      H1236   0.962       .  S
O1211     Zr1221   2.386       .  S
O1212     Zr1221   2.372       .  S
O1212      H1237   0.964       .  S
C1213      C1377   1.496       .  S
C1215      C1266   1.462       .  S
O1216      H1252   0.990       .  S
O1217      C1219   1.284       .  A
O1218      C1219   1.292       .  A
O1220     Zr1221   2.438       .  S
O1220      H1249   0.991       .  S
Zr1221     O1224   2.434       .  S
Zr1221     O1225   2.442       .  S
Zr1221     O1226   2.442       .  S
O1222      C1227   1.290       .  A
O1223      H1240   0.990       .  S
O1223      H1255   0.990       .  S
O1224      H1241   0.990       .  S
O1225      H1245   0.991       .  S
O1225      H1254   0.989       .  S
O1226      C1227   1.275       .  A
C1227      C1384   1.490       .  S
O1228      H1247   0.990       .  S
O1228      H1251   0.990       .  S
O1229      H1243   0.990       .  S
O1229      H1250   0.989       .  S
O1230      C1234   1.280       .  A
O1231      C1234   1.284       .  A
O1232      H1242   0.990       .  S
O1233      H1246   0.991       .  S
C1234      C1357   1.465       .  S
C1257      C1258   1.405       .  A
C1257      C1262   1.446       .  A
C1258      C1259   1.390       .  A
C1258      H1263   1.076       .  S
C1259      C1260   1.395       .  A
C1260      C1261   1.415       .  A
C1260      H1264   1.073       .  S
C1261      N1275   1.487       .  S
C1261      C1262   1.445       .  A
C1262      H1265   1.082       .  S
C1266      C1267   1.397       .  A
C1266      C1271   1.387       .  A
C1267      C1268   1.417       .  A
C1267      H1272   1.078       .  S
C1268      C1269   1.416       .  A
C1269      C1270   1.398       .  A
C1269      H1273   1.080       .  S
C1270      C1271   1.389       .  A
C1270      C1332   1.464       .  S
C1271      H1274   1.085       .  S
N1275      C1279   1.388       .  A
N1275      C1276   1.385       .  A
C1276      C1277   1.393       .  A
C1276      C1317   1.520       .  S
C1277      C1278   1.346       .  A
C1278      C1279   1.375       .  A
C1279      C1521   1.486       .  S
N1282      C1286   1.390       .  A
N1282      C1283   1.389       .  A
N1282      C1364   1.482       .  S
C1283      C1312   1.508       .  S
C1284      C1285   1.346       .  A
C1284      H1287   1.083       .  S
C1285      H1288   1.083   1_545  S
C1286      C1507   1.497       .  S
Zr1289     O1290   2.437       .  S
Zr1289     O1291   2.467       .  S
Zr1289     O1292   2.409       .  S
Zr1289     O1295   2.482       .  S
Zr1289     O1297   2.370       .  S
Zr1289     O1299   2.431       .  S
Zr1289     O1300   2.408       .  S
O1290      H1346   0.990       .  S
O1290      H1354   0.990       .  S
O1292      C1313   1.281       .  A
O1293     Zr1303   2.452   1_545  S
O1294     Zr1302   2.419       .  S
O1294      C1313   1.281       .  A
O1295      C1312   1.289       .  A
O1296     Zr1304   2.440       .  S
O1296      C1311   1.279       .  A
O1297     Zr1302   2.387       .  S
O1298     Zr1303   2.390       .  S
O1298     Zr1304   2.392       .  S
O1298      H1333   0.966       .  S
O1299     Zr1302   2.415       .  S
O1299     Zr1319   2.406       .  S
O1299      H1336   0.965       .  S
O1300     Zr1319   2.396       .  S
Zr1301     O1326   2.442       .  S
Zr1301     O1320   2.455       .  S
Zr1301     O1328   2.410       .  S
Zr1301     O1316   2.514       .  S
Zr1301     O1307   2.420       .  S
Zr1301     O1308   2.399       .  S
Zr1301     O1310   2.390   1_565  S
Zr1302     O1321   2.437       .  S
Zr1302     O1314   2.435       .  S
Zr1302     O1315   2.428       .  S
Zr1302     O1309   2.402       .  S
Zr1303     O1305   2.436       .  S
Zr1303     O1327   2.439       .  S
Zr1303     O1329   2.416       .  S
Zr1303     O1307   2.403       .  S
Zr1303     O1310   2.390   1_565  S
Zr1304     O1330   2.436       .  S
Zr1304     O1331   2.431       .  S
Zr1304     O1306   2.452       .  S
Zr1304     O1307   2.395       .  S
Zr1304     O1308   2.389       .  S
O1305      H1342   0.990       .  S
O1306      H1337   0.988       .  S
O1306      H1351   0.989       .  S
O1308      H1334   0.963       .  S
O1309     Zr1319   2.387       .  S
O1310      H1335   0.964       .  S
C1311      C1482   1.498       .  S
C1313      C1355   1.461       .  S
O1314      H1350   0.991       .  S
O1316      C1317   1.294       .  A
O1318     Zr1319   2.435       .  S
O1318      H1347   0.991       .  S
Zr1319     O1322   2.434       .  S
Zr1319     O1323   2.445       .  S
Zr1319     O1324   2.433       .  S
O1321      H1338   0.990       .  S
O1321      H1353   0.990       .  S
O1322      H1339   0.991       .  S
O1323      H1343   0.990       .  S
O1323      H1352   0.991       .  S
O1324      C1325   1.274       .  A
C1325      C1475   1.485       .  S
O1326      H1345   0.990       .  S
O1326      H1349   0.990       .  S
O1327      H1341   0.990       .  S
O1327      H1348   0.990       .  S
O1328      C1332   1.282       .  A
O1329      C1332   1.281       .  A
O1330      H1340   0.990       .  S
O1331      H1344   0.991       .  S
C1355      C1356   1.388       .  A
C1355      C1360   1.398       .  A
C1356      C1357   1.386       .  A
C1356      H1361   1.085       .  S
C1357      C1358   1.395       .  A
C1358      C1359   1.420       .  A
C1358      H1362   1.077       .  S
C1359      C1360   1.418       .  A
C1359      C1366   1.505       .  S
C1360      H1363   1.079       .  S
C1364      C1369   1.447       .  A
C1365      C1366   1.396       .  A
C1365      H1370   1.074       .  S
C1366      C1367   1.392       .  A
C1367      H1371   1.073       .  S
C1368      C1369   1.445       .  A
C1369      H1372   1.082       .  S
N1373      C1377   1.390       .  A
N1373      C1374   1.389       .  A
N1373      C1462   1.481       .  S
C1374      C1375   1.386       .  A
C1374      C1410   1.509       .  S
C1375      C1376   1.344       .  A
C1375      H1378   1.083       .  S
C1376      C1377   1.376       .  A
C1376      H1379   1.083       .  S
N1380      C1384   1.388       .  A
N1380      C1381   1.387       .  A
N1380      C1553   1.487       .  S
C1381      C1382   1.391       .  A
C1381      C1415   1.522       .  S
C1382      C1383   1.346       .  A
C1382      H1385   1.083       .  S
C1383      C1384   1.375       .  A
C1383      H1386   1.083       .  S
Zr1387     O1389   2.466       .  S
Zr1387     O1390   2.408       .  S
Zr1387     O1395   2.370       .  S
Zr1387     O1396   2.368   1_556  S
Zr1387     O2965   2.431       .  S
O1388      H1444   0.990       .  S
O1388      H1452   0.989       .  S
O1389      C1409   1.294       .  A
O1390      C1411   1.282       .  A
O1391     Zr1401   2.451   1_455  S
O1391      C1410   1.291       .  A
O1392     Zr2968   2.417   1_455  S
O1392      C1411   1.280       .  A
O1393      C1410   1.289       .  A
O1394     Zr1402   2.439       .  S
O1394      C1409   1.279       .  A
O1395     Zr2968   2.383   1_455  S
O1395     Zr1402   2.366       .  S
O1396     Zr1402   2.389   1_554  S
O1397     Zr2955   2.432       .  S
O1397     Zr1400   2.416       .  S
O1397      H1434   0.964       .  S
O1398     Zr1401   2.375   1_455  S
O1398     Zr2985   2.399   1_455  S
Zr1399     O1424   2.439       .  S
Zr1399     O1414   2.508       .  S
Zr1399     O1405   2.419   1_556  S
Zr1399     O1406   2.397       .  S
Zr1399     O1407   2.367       .  S
Zr1400     O1419   2.438       .  S
Zr1400     O1412   2.434       .  S
Zr1400     O2960   2.419       .  S
Zr1400     O1413   2.431       .  S
Zr1400     O2963   2.386       .  S
Zr1400     O1406   2.383       .  S
Zr1400     O1407   2.402       .  S
Zr1401     O1403   2.436       .  S
Zr1401     O1425   2.440   1_655  S
Zr1401     O2995   2.421       .  S
Zr1401     O2581   2.403       .  S
Zr1401     O2976   2.386       .  S
Zr1402     O1428   2.438   1_556  S
Zr1402     O1429   2.428       .  S
Zr1402     O1404   2.452       .  S
Zr1402     O2973   2.396   1_456  S
Zr1402     O2974   2.390   1_455  S
O1403      H1440   0.990       .  S
O1404      H1435   0.989       .  S
O1404      H1449   0.989       .  S
O1405     Zr2577   2.403       .  S
O1405     Zr2970   2.396   1_554  S
O1406     Zr2970   2.393       .  S
O1406      H1432   0.963       .  S
O1408     Zr2969   2.387       .  S
O1408     Zr1417   2.369       .  S
O1408      H1433   0.964       .  S
C1411      C1455   1.461       .  S
O1412      H3016   0.991       .  S
O1413      C1415   1.289       .  A
O1414      C1415   1.293       .  A
O1416     Zr1417   2.436       .  S
O1416      H1445   0.990       .  S
Zr1417     O1421   2.443       .  S
Zr1417     O1422   2.439       .  S
Zr1417     O2966   2.399       .  S
O1418      C1423   1.292       .  A
O1419      H1436   0.990       .  S
O1419      H1451   0.990       .  S
O1421      H1441   0.990       .  S
O1421      H1450   0.991       .  S
O1422      C1423   1.274       .  A
O1424      H1443   0.990       .  S
O1424      H1447   0.989       .  S
O1425      H1439   0.990       .  S
O1425      H1446   0.990       .  S
O1426      C1430   1.282       .  A
O1427     Zr2969   2.421       .  S
O1427      C1430   1.282       .  A
O1428      H1438   0.990       .  S
O1429      H3010   0.991   1_455  S
C1430      C1562   1.466       .  S
H1442      O2997   0.991       .  S
H1448      O2980   0.991       .  S
C1453      C1454   1.386       .  A
C1453      C1458   1.395       .  A
C1453      C1528   1.465       .  S
C1454      C1455   1.389       .  A
C1454      H1459   1.085       .  S
C1455      C1456   1.398       .  A
C1456      C1457   1.416       .  A
C1456      H1460   1.080       .  S
C1457      C1458   1.419       .  A
C1457      C1466   1.502       .  S
C1458      H1461   1.078       .  S
C1462      C1463   1.446       .  A
C1462      C1467   1.412       .  A
C1463      C1464   1.444       .  A
C1463      H1468   1.082       .  S
C1464      N1471   1.477       .  S
C1464      C1465   1.404       .  A
C1465      C1466   1.390       .  A
C1465      H1469   1.074       .  S
C1466      C1467   1.395       .  A
C1467      H1470   1.074       .  S
N1471      C1475   1.390       .  A
N1471      C1472   1.380       .  A
C1472      C1513   1.497       .  S
C1473      C1474   1.342       .  A
C1473      H1476   1.083   1_545  S
C1474      H1477   1.083   1_545  S
N1478      C1482   1.390       .  A
N1478      C1479   1.383       .  A
N1478      C1551   1.475       .  S
C1479      C1480   1.384       .  A
C1479      C1508   1.495       .  S
C1480      C1481   1.347       .  A
C1481      C1482   1.378       .  A
Zr1485     O1486   2.439       .  S
Zr1485     O1491   2.467       .  S
Zr1485     O1495   2.429   1_556  S
Zr1485     O1496   2.412       .  S
O1486      H1542   0.991       .  S
O1486      H1550   0.989       .  S
O1488      C1509   1.281       .  A
O1489     Zr1499   2.449       .  S
O1490     Zr3066   2.429       .  S
O1490      C1509   1.282       .  A
O1491      C1508   1.287       .  A
O1492     Zr1500   2.438       .  S
O1492      C1507   1.278       .  A
O1493     Zr3066   2.378   1_545  S
O1494     Zr1499   2.392       .  S
O1494      H1529   0.967       .  S
O1495     Zr2674   2.409       .  S
O1495     Zr3083   2.408   1_554  S
O1496     Zr3083   2.400       .  S
Zr1497     O1516   2.462       .  S
Zr1497     O1524   2.406       .  S
Zr1497     O3071   2.419       .  S
Zr1497     O1506   2.385       .  S
Zr1498     O1517   2.435   1_655  S
Zr1498     O1510   2.436       .  S
Zr1498     O3058   2.433       .  S
Zr1498     O1511   2.417   1_665  S
Zr1498     O3061   2.374   1_565  S
Zr1498     O2671   2.411       .  S
Zr1499     O1501   2.436       .  S
Zr1499     O1523   2.437       .  S
Zr1499     O3093   2.438       .  S
Zr1499     O1503   2.400       .  S
Zr1499     O3074   2.383       .  S
Zr1500     O1527   2.429       .  S
Zr1500     O1502   2.455       .  S
Zr1500     O3072   2.388       .  S
O1501      H1538   0.990       .  S
O1502      H1533   0.989       .  S
O1502      H1547   0.988       .  S
O1503     Zr3065   2.419       .  S
O1504     Zr3068   2.390   1_455  S
O1504      H1530   0.963       .  S
O1505     Zr1515   2.384   1_554  S
O1506     Zr3067   2.385   1_455  S
O1506      H1531   0.965       .  S
C1509      C1560   1.465       .  S
O1510      H3114   0.990   1_565  S
O1512      C1513   1.291       .  A
O1514     Zr1515   2.438       .  S
O1514      H1543   0.991       .  S
Zr1515     O1518   2.433   1_556  S
Zr1515     O1519   2.441       .  S
Zr1515     O1520   2.437       .  S
Zr1515     O3063   2.405   1_456  S
Zr1515     O3064   2.393   1_455  S
O1517      H1534   0.990       .  S
O1517      H1549   0.990       .  S
O1518      H1535   0.990       .  S
O1519      H1539   0.991       .  S
O1519      H1548   0.989       .  S
O1520      C1521   1.274       .  A
O1522      H1541   0.990       .  S
O1522      H1545   0.989       .  S
O1523      H1537   0.991       .  S
O1523      H1544   0.989       .  S
O1524      C1528   1.280       .  A
O1525     Zr3067   2.426   1_455  S
O1525      C1528   1.282       .  A
O1527      H1540   0.991       .  S
H1546      O3078   0.990       .  S
C1551      C1552   1.445       .  A
C1551      C1556   1.406       .  A
C1552      C1553   1.445       .  A
C1552      H1557   1.082       .  S
C1553      C1554   1.416       .  A
C1554      C1555   1.397       .  A
C1554      H1558   1.074       .  S
C1555      C1556   1.391       .  A
C1555      C1564   1.505       .  S
C1556      H1559   1.075       .  S
C1560      C1561   1.388       .  A
C1560      C1565   1.399       .  A
C1561      C1562   1.389       .  A
C1561      H1566   1.085       .  S
C1562      C1563   1.398       .  A
C1563      C1564   1.417       .  A
C1563      H1567   1.080       .  S
C1564      C1565   1.420       .  A
C1565      H1568   1.078       .  S
N1569      C1573   1.390       .  A
N1569      C1570   1.384       .  A
N1569      C1649   1.474       .  S
C1570      C1571   1.384       .  A
C1570      C1606   1.494       .  S
C1571      C1572   1.346       .  A
C1571      H1574   1.083       .  S
C1572      C1573   1.378       .  A
C1572      H1575   1.083       .  S
C1573      C1801   1.498       .  S
N1576      C1580   1.390       .  A
N1576      C1577   1.381       .  A
N1576      C1760   1.478       .  S
C1577      C1578   1.389       .  A
C1577      C1611   1.496       .  S
C1578      C1579   1.340       .  A
C1578      H1581   1.084       .  S
C1579      C1580   1.375       .  A
C1579      H1582   1.083   1_554  S
C1580      C1815   1.485       .  S
Zr1583     O1584   2.439       .  S
Zr1583     O1585   2.477       .  S
Zr1583     O1586   2.404       .  S
Zr1583     O1589   2.461       .  S
Zr1583     O1591   2.363       .  S
Zr1583     O1592   2.371       .  S
Zr1583     O1593   2.429       .  S
Zr1583     O1594   2.412       .  S
O1584      H1640   0.990       .  S
O1584      H1648   0.990       .  S
O1585      C1605   1.297       .  A
O1586      C1607   1.280       .  A
O1587     Zr1597   2.450       .  S
O1587      C1606   1.289       .  A
O1588     Zr1596   2.424       .  S
O1588      C1607   1.282       .  A
O1589      C1606   1.286       .  A
O1590     Zr1598   2.438       .  S
O1590      C1605   1.279       .  A
O1591     Zr1596   2.375       .  S
O1591     Zr1598   2.364       .  S
O1592     Zr1597   2.390       .  S
O1592     Zr1598   2.390       .  S
O1592      H1627   0.966       .  S
O1593     Zr1596   2.409       .  S
O1593     Zr1613   2.409       .  S
O1593      H1630   0.965       .  S
O1594     Zr1597   2.377       .  S
O1594     Zr1613   2.395       .  S
Zr1595     O1620   2.439       .  S
Zr1595     O1614   2.455       .  S
Zr1595     O1622   2.399       .  S
Zr1595     O1610   2.486       .  S
Zr1595     O1601   2.422       .  S
Zr1595     O1602   2.396       .  S
Zr1595     O1603   2.371       .  S
Zr1595     O1604   2.386       .  S
Zr1596     O1615   2.435       .  S
Zr1596     O1608   2.434       .  S
Zr1596     O1609   2.410       .  S
Zr1596     O1602   2.388       .  S
Zr1596     O1603   2.405       .  S
Zr1597     O1599   2.436       .  S
Zr1597     O1621   2.437       .  S
Zr1597     O1623   2.433       .  S
Zr1597     O1601   2.401       .  S
Zr1597     O1604   2.382       .  S
Zr1598     O1624   2.437       .  S
Zr1598     O1625   2.429       .  S
Zr1598     O1600   2.455       .  S
Zr1598     O1601   2.406       .  S
Zr1598     O1602   2.385       .  S
O1599      H1636   0.990       .  S
O1600      H1631   0.989       .  S
O1600      H1645   0.988       .  S
O1602      H1628   0.963       .  S
O1603     Zr1613   2.383       .  S
O1604     Zr1613   2.371       .  S
O1604      H1629   0.965       .  S
C1605      C1769   1.501       .  S
C1607      C1658   1.461       .  S
O1608      H1644   0.990       .  S
O1609      C1611   1.284       .  A
O1610      C1611   1.290       .  A
O1612     Zr1613   2.437       .  S
O1612      H1641   0.991       .  S
Zr1613     O1616   2.434       .  S
Zr1613     O1617   2.443       .  S
Zr1613     O1618   2.438       .  S
O1614      C1619   1.291       .  A
O1615      H1632   0.990       .  S
O1615      H1647   0.990       .  S
O1616      H1633   0.990       .  S
O1617      H1637   0.991       .  S
O1617      H1646   0.990       .  S
O1618      C1619   1.274       .  A
C1619      C1776   1.487       .  S
O1620      H1639   0.990       .  S
O1620      H1643   0.989       .  S
O1621      H1635   0.990       .  S
O1621      H1642   0.990       .  S
O1622      C1626   1.280       .  A
O1623      C1626   1.283       .  A
O1624      H1634   0.990       .  S
O1625      H1638   0.991       .  S
C1626      C1749   1.464       .  S
C1649      C1650   1.405       .  A
C1649      C1654   1.445       .  A
C1650      C1651   1.391       .  A
C1650      H1655   1.076       .  S
C1651      C1652   1.392       .  A
C1651      C2052   1.500       .  S
C1652      C1653   1.414       .  A
C1652      H1656   1.074       .  S
C1653      N1667   1.485       .  S
C1653      C1654   1.445       .  A
C1654      H1657   1.082       .  S
C1658      C1659   1.397       .  A
C1658      C1663   1.387       .  A
C1659      C1660   1.416       .  A
C1659      H1664   1.079       .  S
C1660      C1661   1.417       .  A
C1660      C2043   1.501   1_554  S
C1661      C1662   1.399       .  A
C1661      H1665   1.081       .  S
C1662      C1663   1.390       .  A
C1662      C1724   1.467       .  S
C1663      H1666   1.085       .  S
N1667      C1671   1.387       .  A
N1667      C1668   1.384       .  A
C1668      C1669   1.392       .  A
C1668      C1709   1.520       .  S
C1669      C1670   1.347       .  A
C1669      H2456   1.083       .  S
C1670      C1671   1.375       .  A
C1670      H2457   1.083       .  S
C1671      C1913   1.487       .  S
H1672      C2453   1.083       .  S
H1673      C2454   1.083       .  S
N1674      C1678   1.390       .  A
N1674      C1675   1.388       .  A
N1674      C1756   1.481       .  S
C1675      C2460   1.387       .  A
C1675      C1704   1.508       .  S
C1676      C2459   1.386       .  A
C1676      C1677   1.344       .  A
C1676      H1679   1.083       .  S
C1677      C2462   1.376       .  A
C1677      H1680   1.083   1_554  S
C1678      C2461   1.377       .  A
C1678      C1899   1.496       .  S
Zr1681     O1682   2.440       .  S
Zr1681     O1683   2.466   1_545  S
Zr1681     O1684   2.405       .  S
Zr1681     O1687   2.478       .  S
Zr1681     O1689   2.372   1_545  S
Zr1681     O2474   2.369   1_545  S
Zr1681     O1691   2.431       .  S
Zr1681     O1692   2.407       .  S
O1682      H1738   0.991       .  S
O1682      H1746   0.989       .  S
O1683      C2487   1.294       .  A
O1684      C1705   1.280       .  A
O1685     Zr1695   2.453       .  S
O1685      C2488   1.291       .  A
O1686     Zr1694   2.418       .  S
O1686      C1705   1.280       .  A
O1687      C1704   1.288       .  A
O1688     Zr1696   2.443       .  S
O1688      C1703   1.279       .  A
O1689     Zr1694   2.387   1_565  S
O1689     Zr2480   2.368       .  S
O1690     Zr2465   2.367       .  S
O1690     Zr1695   2.391       .  S
O1690     Zr1696   2.391       .  S
O1690      H1725   0.967       .  S
O1691     Zr1694   2.416       .  S
O1691     Zr1711   2.404       .  S
O1691      H1728   0.965       .  S
O1692     Zr2479   2.374   1_545  S
O1692     Zr1711   2.395       .  S
Zr1693     O1718   2.440       .  S
Zr1693     O1712   2.456       .  S
Zr1693     O1720   2.406       .  S
Zr1693     O1708   2.509       .  S
Zr1693     O1699   2.420       .  S
Zr1693     O1700   2.399       .  S
Zr1693     O2485   2.367       .  S
Zr1693     O1702   2.390       .  S
Zr1694     O1713   2.436       .  S
Zr1694     O1706   2.435   1_545  S
Zr1694     O1707   2.427   1_545  S
Zr1694     O2484   2.384   1_545  S
Zr1694     O1701   2.401       .  S
Zr1695     O1697   2.437       .  S
Zr1695     O1719   2.436       .  S
Zr1695     O1721   2.422       .  S
Zr1695     O2476   2.377       .  S
Zr1695     O1699   2.402       .  S
Zr1695     O1702   2.387       .  S
Zr1696     O1722   2.438       .  S
Zr1696     O1723   2.429       .  S
Zr1696     O1698   2.453       .  S
Zr1696     O2473   2.365       .  S
Zr1696     O1699   2.398       .  S
Zr1696     O1700   2.392       .  S
O1697      H1734   0.990       .  S
O1698      H1729   0.988       .  S
O1698      H1743   0.989       .  S
O1700     Zr2478   2.386       .  S
O1700      H1726   0.963       .  S
O1701     Zr2477   2.368   1_545  S
O1701     Zr1711   2.387       .  S
O1702     Zr2495   2.371       .  S
O1702      H1727   0.964       .  S
C1703      C1874   1.499       .  S
C1703      O2467   1.294       .  A
C1704      O2469   1.290       .  A
C1705      C1747   1.462       .  S
O1706      H1742   0.991       .  S
O1707      C2493   1.288       .  A
O1708      C1709   1.293       .  A
C1709      O2491   1.288       .  A
O1710     Zr1711   2.437       .  S
O1710      H1739   0.991       .  S
Zr1711     O1714   2.431       .  S
Zr1711     O1715   2.441       .  S
Zr1711     O1716   2.435       .  S
Zr1711     O2486   2.368   1_545  S
O1712      C2501   1.291       .  A
O1713      H1730   0.990       .  S
O1713      H1745   0.990       .  S
O1714      H1731   0.991       .  S
O1715      H1735   0.989       .  S
O1715      H1744   0.991       .  S
O1716      C1717   1.274       .  A
C1717      C1867   1.486       .  S
C1717      O2496   1.291   1_545  A
O1718      H1737   0.990       .  S
O1718      H1741   0.990       .  S
O1719      H1733   0.990       .  S
O1719      H1740   0.990       .  S
O1720      C1724   1.281       .  A
O1721      C1724   1.282       .  A
O1722      H1732   0.990       .  S
O1723      H1736   0.991       .  S
C1747      C1748   1.390       .  A
C1747      C1752   1.398       .  A
C1748      C1749   1.387       .  A
C1748      H1753   1.085       .  S
C1749      C1750   1.396       .  A
C1750      C1751   1.418       .  A
C1750      H1754   1.078       .  S
C1751      C1752   1.415       .  A
C1751      C1758   1.502       .  S
C1752      H1755   1.080       .  S
C1756      C2149   1.410   1_554  A
C1756      C1761   1.447       .  A
C1757      C2148   1.412       .  A
C1757      C1758   1.396       .  A
C1757      H1762   1.075       .  S
C1758      C1759   1.391       .  A
C1759      C2152   1.405       .  A
C1759      H1763   1.074       .  S
C1760      C2151   1.404   1_554  A
C1760      C1761   1.446       .  A
C1761      H1764   1.082       .  S
N1765      C1769   1.392       .  A
N1765      C1766   1.389       .  A
N1765      C1854   1.482       .  S
C1766      C1767   1.386       .  A
C1766      C1802   1.511       .  S
C1767      C1768   1.347       .  A
C1767      H1770   1.083       .  S
C1768      C1769   1.376       .  A
C1768      H1771   1.083       .  S
N1772      C1776   1.388       .  A
N1772      C1773   1.385       .  A
N1772      C1945   1.486       .  S
C1773      C1774   1.392       .  A
C1773      C1807   1.518       .  S
C1774      C1775   1.345       .  A
C1774      H1777   1.083       .  S
C1775      C1776   1.375       .  A
C1775      H1778   1.083       .  S
Zr1779     O2172   2.439       .  S
Zr1779     O1781   2.465       .  S
Zr1779     O1782   2.409       .  S
Zr1779     O2177   2.481       .  S
Zr1779     O1787   2.370       .  S
Zr1779     O1788   2.370       .  S
Zr1779     O2182   2.411       .  S
O1780     Zr2171   2.437   1_554  S
O1780      H1836   0.991   1_554  S
O1780      H1844   0.989       .  S
O1781      C1801   1.294       .  A
O1782      C1803   1.282       .  A
O1783     Zr1793   2.453       .  S
O1783      C1802   1.290       .  A
O1784      C1803   1.279       .  A
O1785     Zr2171   2.486   1_554  S
O1785      C1802   1.290       .  A
O1786     Zr1794   2.443       .  S
O1786      C1801   1.280       .  A
O1787     Zr1794   2.366       .  S
O1788     Zr2185   2.393       .  S
O1788     Zr1794   2.394       .  S
O1788      H2215   0.966       .  S
O1789     Zr1792   2.413   1_455  S
O1789     Zr2201   2.406   1_455  S
O1789      H1826   0.965       .  S
O1790     Zr2171   2.412   1_554  S
O1790     Zr1793   2.377       .  S
Zr1791     O1816   2.439       .  S
Zr1791     O2202   2.456       .  S
Zr1791     O2210   2.405       .  S
Zr1791     O1806   2.510       .  S
Zr1791     O1797   2.419       .  S
Zr1791     O1798   2.395       .  S
Zr1791     O1799   2.366       .  S
Zr1791     O2192   2.389       .  S
Zr1792     O1811   2.436       .  S
Zr1792     O1804   2.436   1_655  S
Zr1792     O1805   2.419       .  S
Zr1792     O1798   2.385       .  S
Zr1792     O1799   2.404       .  S
Zr1793     O1795   2.436       .  S
Zr1793     O1817   2.438       .  S
Zr1793     O2180   2.389       .  S
Zr1794     O1820   2.438       .  S
Zr1794     O1821   2.431       .  S
Zr1794     O1796   2.457       .  S
O1795      H1832   0.990       .  S
O1796      H1827   0.989       .  S
O1796      H1841   0.988       .  S
O1798      H1824   0.963       .  S
O1799     Zr2201   2.387       .  S
O1800     Zr2183   2.388   1_554  S
O1800     Zr1809   2.369   1_554  S
O1800      H1825   0.964       .  S
C1803      C1847   1.460       .  S
O1805      C1807   1.287       .  A
O1806      C1807   1.294       .  A
O1808     Zr1809   2.434   1_554  S
O1808      H1837   0.991       .  S
Zr1809     O2204   2.433       .  S
Zr1809     O1813   2.444   1_556  S
Zr1809     O1814   2.435   1_556  S
Zr1809     O2181   2.407   1_655  S
Zr1809     O2191   2.386       .  S
O1810     Zr2183   2.454       .  S
O1810      C1815   1.291   1_556  A
O1811      H1828   0.990       .  S
O1811      H1843   0.990       .  S
O1812     Zr2201   2.433       .  S
O1812      H2221   0.990       .  S
O1813      H1833   0.990   1_554  S
O1813      H1842   0.991       .  S
O1814      C1815   1.274       .  A
O1816      H1835   0.990       .  S
O1816      H1839   0.990       .  S
O1817      H1831   0.990       .  S
O1817      H1838   0.989       .  S
O1818     Zr2183   2.412   1_554  S
O1818      C1822   1.283       .  A
O1819      C1822   1.282       .  A
O1820      H1830   0.990       .  S
C1822      C1954   1.467       .  S
H1823      O2180   0.967       .  S
H1829      O2204   0.990       .  S
C1845      C1846   1.387       .  A
C1845      C1850   1.395       .  A
C1845      C1920   1.464       .  S
C1846      C1847   1.389       .  A
C1846      H1851   1.085       .  S
C1847      C1848   1.397       .  A
C1848      C1849   1.416       .  A
C1848      H1852   1.080       .  S
C1849      C1850   1.418       .  A
C1849      C1858   1.501       .  S
C1850      H1853   1.078       .  S
C1854      C1855   1.447       .  A
C1854      C1859   1.411       .  A
C1855      C1856   1.445       .  A
C1855      H1860   1.082       .  S
C1856      N1863   1.478       .  S
C1856      C1857   1.405       .  A
C1857      C1858   1.391       .  A
C1857      H1861   1.074       .  S
C1858      C1859   1.395       .  A
C1859      H1862   1.074       .  S
N1863      C1867   1.389       .  A
N1863      C1864   1.380       .  A
C1864      C2649   1.391       .  A
C1864      C1905   1.499       .  S
C1865      C2648   1.391       .  A
C1865      C1866   1.342       .  A
C1865      H1868   1.083       .  S
C1866      C2651   1.375       .  A
C1866      H1869   1.083       .  S
C1867      C2650   1.376       .  A
N1870      C1874   1.391       .  A
N1870      C1871   1.384       .  A
N1870      C1943   1.476       .  S
C1871      C1872   1.384       .  A
C1871      C1900   1.493       .  S
C1872      C1873   1.344       .  A
C1872      H2659   1.084       .  S
C1873      C1874   1.378       .  A
C1873      H2660   1.083       .  S
H1875      C2656   1.083       .  S
H1876      C2657   1.083   1_545  S
Zr1877     O1878   2.437       .  S
Zr1877     O2271   2.467       .  S
Zr1877     O2272   2.406       .  S
Zr1877     O1883   2.465       .  S
Zr1877     O2277   2.363       .  S
Zr1877     O2670   2.371       .  S
Zr1877     O1887   2.429       .  S
Zr1877     O1888   2.409       .  S
O1878      H1934   0.990       .  S
O1878      H1942   0.990       .  S
O1879     Zr2269   2.472       .  S
O1879      C2683   1.296   1_556  A
O1880     Zr2269   2.405   1_554  S
O1880      C1901   1.280       .  A
O1881     Zr1891   2.447   1_665  S
O1881      C2684   1.288       .  A
O1882      C1901   1.282       .  A
O1883      C1900   1.287       .  A
O1884     Zr1892   2.437   1_554  S
O1884      C1899   1.280       .  A
O1885     Zr2269   2.362   1_554  S
O1885     Zr2676   2.366   1_554  S
O1886     Zr2661   2.371   1_545  S
O1886     Zr1891   2.392   1_655  S
O1886     Zr2284   2.390       .  S
O1886      H1921   0.966       .  S
O1887      H2316   0.965       .  S
O1888     Zr2675   2.377   1_655  S
Zr1889     O2306   2.439       .  S
Zr1889     O1908   2.460   1_545  S
Zr1889     O1916   2.402       .  S
Zr1889     O2296   2.492       .  S
Zr1889     O2288   2.397       .  S
Zr1889     O2681   2.370   1_545  S
Zr1889     O1898   2.386   1_545  S
Zr1890     O1909   2.434       .  S
Zr1890     O1902   2.437       .  S
Zr1890     O1903   2.410       .  S
Zr1890     O2680   2.390       .  S
Zr1890     O2289   2.406       .  S
Zr1891     O1893   2.436   1_545  S
Zr1891     O1915   2.438   1_455  S
Zr1891     O2672   2.379   1_445  S
Zr1891     O1895   2.400       .  S
Zr1892     O2310   2.439       .  S
Zr1892     O1919   2.433       .  S
Zr1892     O1894   2.446   1_556  S
Zr1892     O2669   2.365   1_556  S
Zr1892     O2278   2.391       .  S
Zr1892     O2287   2.401   1_655  S
O1893      H1930   0.990   1_565  S
O1894      H1925   0.989       .  S
O1894      H1939   0.989       .  S
O1895     Zr2284   2.402   1_455  S
O1896     Zr2281   2.397   1_554  S
O1896     Zr2674   2.390   1_545  S
O1896      H1922   0.963       .  S
O1897     Zr2673   2.370       .  S
O1897     Zr2282   2.405       .  S
O1897     Zr1907   2.384       .  S
O1898     Zr2691   2.371       .  S
O1898      H1923   0.965       .  S
C1899      O2663   1.295   1_544  A
C1900      O2665   1.287       .  A
C1901      C1952   1.461       .  S
O1903      C2689   1.284       .  A
O1904     Zr2281   2.491   1_554  S
O1904      C1905   1.291       .  A
C1905      O2687   1.284       .  A
O1906     Zr1907   2.436       .  S
O1906      H1935   0.991       .  S
Zr1907     O1910   2.434       .  S
Zr1907     O1911   2.443       .  S
Zr1907     O1912   2.438       .  S
Zr1907     O2682   2.371       .  S
O1908      C2697   1.292       .  A
O1909      H1926   0.990       .  S
O1909      H1941   0.991       .  S
O1910      H1927   0.990       .  S
O1911      H1931   0.991       .  S
O1911      H1940   0.989       .  S
O1912      C1913   1.275       .  A
C1913      O2692   1.291       .  A
O1914     Zr2281   2.438   1_554  S
O1914      H1933   0.990   1_554  S
O1914      H1937   0.989       .  S
O1915      H1929   0.990       .  S
O1915      H1936   0.989       .  S
O1916      C1920   1.280       .  A
O1917      C1920   1.283       .  A
O1918     Zr2284   2.438       .  S
O1918      H2320   0.990       .  S
O1919      H1932   0.991   1_656  S
H1924      O2279   0.965       .  S
H1928      O2310   0.990       .  S
C1943      C1944   1.447       .  A
C1943      C1948   1.406       .  A
C1944      C1945   1.446       .  A
C1944      H1949   1.082       .  S
C1945      C1946   1.413       .  A
C1946      C1947   1.393       .  A
C1946      H1950   1.074       .  S
C1947      C1948   1.393       .  A
C1947      C1956   1.503       .  S
C1948      H1951   1.076       .  S
C1952      C1953   1.387       .  A
C1952      C1957   1.397       .  A
C1953      C1954   1.389       .  A
C1953      H1958   1.085       .  S
C1954      C1955   1.399       .  A
C1955      C1956   1.419       .  A
C1955      H1959   1.080       .  S
C1956      C1957   1.416       .  A
C1957      H1960   1.078       .  S
N1961      C1965   1.390       .  A
N1961      C1962   1.382       .  A
N1961      C2041   1.473       .  S
C1962      C1963   1.383       .  A
C1962      C1998   1.492       .  S
C1963      C1964   1.347       .  A
C1963      H1966   1.082       .  S
C1964      C1965   1.378       .  A
C1964      H1967   1.083       .  S
C1965      C2193   1.499       .  S
N1968      C1972   1.391       .  A
N1968      C1969   1.382       .  A
N1968      C2152   1.480       .  S
C1969      C1970   1.390       .  A
C1969      C2003   1.503       .  S
C1970      C1971   1.342       .  A
C1970      H1973   1.083       .  S
C1971      C1972   1.376       .  A
C1971      H1974   1.083       .  S
C1972      C2207   1.489       .  S
Zr1975     O1976   2.441       .  S
Zr1975     O1977   2.472       .  S
Zr1975     O1978   2.402       .  S
Zr1975     O1981   2.465       .  S
Zr1975     O1983   2.364       .  S
Zr1975     O1984   2.369       .  S
Zr1975     O1985   2.430       .  S
Zr1975     O1986   2.413       .  S
O1976      H2032   0.990       .  S
O1976      H2040   0.990       .  S
O1977      C1997   1.295       .  A
O1978      C1999   1.279       .  A
O1979     Zr1989   2.448       .  S
O1979      C1998   1.287       .  A
O1980     Zr1988   2.425       .  S
O1980      C1999   1.281       .  A
O1981      C1998   1.287       .  A
O1982     Zr1990   2.434       .  S
O1982      C1997   1.278       .  A
O1983     Zr1988   2.376       .  S
O1983     Zr1990   2.366       .  S
O1984     Zr1989   2.392       .  S
O1984     Zr1990   2.391       .  S
O1984      H2019   0.967       .  S
O1985     Zr1988   2.411       .  S
O1985     Zr2005   2.411       .  S
O1985      H2022   0.965       .  S
O1986     Zr1989   2.380       .  S
O1986     Zr2005   2.399       .  S
Zr1987     O2012   2.438       .  S
Zr1987     O2006   2.454       .  S
Zr1987     O2014   2.399       .  S
Zr1987     O2002   2.498       .  S
Zr1987     O1993   2.421       .  S
Zr1987     O1994   2.395       .  S
Zr1987     O1995   2.369       .  S
Zr1987     O1996   2.389       .  S
Zr1988     O2007   2.434       .  S
Zr1988     O2000   2.434       .  S
Zr1988     O2001   2.412       .  S
Zr1988     O1994   2.389       .  S
Zr1988     O1995   2.405       .  S
Zr1989     O1991   2.437       .  S
Zr1989     O2013   2.439       .  S
Zr1989     O2015   2.432       .  S
Zr1989     O1993   2.400       .  S
Zr1989     O1996   2.385       .  S
Zr1990     O2016   2.440       .  S
Zr1990     O2017   2.430       .  S
Zr1990     O1992   2.454       .  S
Zr1990     O1993   2.401       .  S
Zr1990     O1994   2.389       .  S
O1991      H2028   0.990       .  S
O1992      H2023   0.989       .  S
O1992      H2037   0.988       .  S
O1994      H2020   0.963       .  S
O1995     Zr2005   2.385       .  S
O1996     Zr2005   2.369       .  S
O1996      H2021   0.964       .  S
C1997      C2161   1.496       .  S
C1999      C2050   1.460       .  S
O2000      H2036   0.990       .  S
O2001      C2003   1.284       .  A
O2002      C2003   1.292       .  A
O2004     Zr2005   2.438       .  S
O2004      H2033   0.991       .  S
Zr2005     O2008   2.434       .  S
Zr2005     O2009   2.445       .  S
Zr2005     O2010   2.444       .  S
O2006      C2011   1.290       .  A
O2007      H2024   0.990       .  S
O2007      H2039   0.990       .  S
O2008      H2025   0.990       .  S
O2009      H2029   0.991       .  S
O2009      H2038   0.990       .  S
O2010      C2011   1.276       .  A
C2011      C2168   1.489       .  S
O2012      H2031   0.990       .  S
O2012      H2035   0.989       .  S
O2013      H2027   0.990       .  S
O2013      H2034   0.990       .  S
O2014      C2018   1.280       .  A
O2015      C2018   1.283       .  A
O2016      H2026   0.990       .  S
O2017      H2030   0.991       .  S
C2018      C2141   1.464       .  S
C2041      C2042   1.405       .  A
C2041      C2046   1.444       .  A
C2042      C2043   1.391       .  A
C2042      H2047   1.076       .  S
C2043      C2044   1.393       .  A
C2044      C2045   1.415       .  A
C2044      H2048   1.074       .  S
C2045      N2059   1.485       .  S
C2045      C2046   1.444       .  A
C2046      H2049   1.082       .  S
C2050      C2051   1.396       .  A
C2050      C2055   1.387       .  A
C2051      C2052   1.416       .  A
C2051      H2056   1.079       .  S
C2052      C2053   1.417       .  A
C2053      C2054   1.399       .  A
C2053      H2057   1.081       .  S
C2054      C2055   1.389       .  A
C2054      C2116   1.466       .  S
C2055      H2058   1.085       .  S
N2059      C2063   1.387       .  A
N2059      C2060   1.384       .  A
C2060      C2061   1.393       .  A
C2060      C2101   1.522       .  S
C2061      C2062   1.348       .  A
C2061      H2848   1.083       .  S
C2062      C2063   1.375       .  A
C2062      H2849   1.083       .  S
C2063      C2305   1.488       .  S
H2064      C2845   1.083       .  S
H2065      C2846   1.083       .  S
N2066      C2070   1.391       .  A
N2066      C2067   1.389       .  A
N2066      C2148   1.483       .  S
C2067      C2852   1.387       .  A
C2067      C2096   1.511       .  S
C2068      C2851   1.385       .  A
C2068      C2069   1.344       .  A
C2068      H2071   1.083       .  S
C2069      C2854   1.377       .  A
C2069      H2072   1.083       .  S
C2070      C2853   1.377       .  A
C2070      C2291   1.497       .  S
Zr2073     O2074   2.437       .  S
Zr2073     O2075   2.462   1_545  S
Zr2073     O2076   2.407       .  S
Zr2073     O2079   2.485       .  S
Zr2073     O2081   2.373   1_545  S
Zr2073     O2866   2.367   1_545  S
Zr2073     O2083   2.431       .  S
Zr2073     O2084   2.408       .  S
O2074      H2130   0.991       .  S
O2074      H2138   0.989       .  S
O2075      C2879   1.293       .  A
O2076      C2097   1.281       .  A
O2077     Zr2087   2.454       .  S
O2077      C2880   1.291       .  A
O2078     Zr2086   2.415       .  S
O2078      C2097   1.280       .  A
O2079      C2096   1.290       .  A
O2080     Zr2088   2.441       .  S
O2080      C2095   1.279       .  A
O2081     Zr2086   2.387   1_565  S
O2081     Zr2872   2.366       .  S
O2082     Zr2857   2.367       .  S
O2082     Zr2087   2.391       .  S
O2082     Zr2088   2.392       .  S
O2082      H2117   0.966       .  S
O2083     Zr2086   2.419       .  S
O2083     Zr2103   2.404       .  S
O2083      H2120   0.964       .  S
O2084     Zr2871   2.376   1_545  S
O2084     Zr2103   2.398       .  S
Zr2085     O2110   2.442       .  S
Zr2085     O2104   2.458       .  S
Zr2085     O2112   2.411       .  S
Zr2085     O2100   2.514       .  S
Zr2085     O2091   2.421       .  S
Zr2085     O2092   2.399       .  S
Zr2085     O2877   2.367       .  S
Zr2085     O2094   2.392       .  S
Zr2086     O2105   2.437       .  S
Zr2086     O2098   2.436   1_545  S
Zr2086     O2099   2.425   1_545  S
Zr2086     O2876   2.383   1_545  S
Zr2086     O2093   2.404       .  S
Zr2087     O2089   2.437       .  S
Zr2087     O2111   2.439       .  S
Zr2087     O2113   2.418       .  S
Zr2087     O2868   2.375       .  S
Zr2087     O2091   2.404       .  S
Zr2087     O2094   2.392       .  S
Zr2088     O2114   2.438       .  S
Zr2088     O2115   2.429       .  S
Zr2088     O2090   2.452       .  S
Zr2088     O2865   2.366       .  S
Zr2088     O2091   2.397       .  S
Zr2088     O2092   2.391       .  S
O2089      H2126   0.990       .  S
O2090      H2121   0.988       .  S
O2090      H2135   0.989       .  S
O2092     Zr2870   2.385       .  S
O2092      H2118   0.963       .  S
O2093     Zr2869   2.368   1_545  S
O2093     Zr2103   2.387       .  S
O2094     Zr2887   2.372       .  S
O2094      H2119   0.964       .  S
C2095      C2266   1.500       .  S
C2095      O2859   1.295       .  A
C2096      O2861   1.290       .  A
C2097      C2139   1.460       .  S
O2098      H2134   0.991       .  S
O2099      C2885   1.288       .  A
O2100      C2101   1.294       .  A
C2101      O2883   1.287       .  A
O2102     Zr2103   2.437       .  S
O2102      H2131   0.991       .  S
Zr2103     O2106   2.435       .  S
Zr2103     O2107   2.441       .  S
Zr2103     O2108   2.437       .  S
Zr2103     O2878   2.370       .  S
O2104      C2893   1.291       .  A
O2105      H2122   0.990       .  S
O2105      H2137   0.990       .  S
O2106      H2123   0.990       .  S
O2107      H2127   0.989       .  S
O2107      H2136   0.991       .  S
O2108      C2109   1.274       .  A
C2109      C2259   1.488       .  S
C2109      O2888   1.292   1_545  A
O2110      H2129   0.990       .  S
O2110      H2133   0.990       .  S
O2111      H2125   0.990       .  S
O2111      H2132   0.990       .  S
O2112      C2116   1.282       .  A
O2113      C2116   1.281       .  A
O2114      H2124   0.990       .  S
O2115      H2128   0.991       .  S
C2139      C2140   1.389       .  A
C2139      C2144   1.397       .  A
C2140      C2141   1.387       .  A
C2140      H2145   1.085       .  S
C2141      C2142   1.395       .  A
C2142      C2143   1.418       .  A
C2142      H2146   1.078       .  S
C2143      C2144   1.415       .  A
C2143      C2150   1.501       .  S
C2144      H2147   1.080       .  S
C2148      C2153   1.448       .  A
C2149      C2150   1.395       .  A
C2149      H2154   1.074       .  S
C2150      C2151   1.391       .  A
C2151      H2155   1.074       .  S
C2152      C2153   1.446       .  A
C2153      H2156   1.082       .  S
N2157      C2161   1.390       .  A
N2157      C2158   1.387       .  A
N2157      C2246   1.481       .  S
C2158      C2159   1.386       .  A
C2158      C2194   1.508       .  S
C2159      C2160   1.346       .  A
C2159      H2162   1.083       .  S
C2160      C2161   1.376       .  A
C2160      H2163   1.083       .  S
N2164      C2168   1.388       .  A
N2164      C2165   1.386       .  A
N2164      C2337   1.487       .  S
C2165      C2166   1.392       .  A
C2165      C2199   1.521       .  S
C2166      C2167   1.346       .  A
C2166      H2169   1.083       .  S
C2167      C2168   1.375       .  A
C2167      H2170   1.083       .  S
Zr2171     O2173   2.468       .  S
Zr2171     O2174   2.411       .  S
Zr2171     O2179   2.371       .  S
Zr2171     O2180   2.367   1_556  S
O2172      H2228   0.990       .  S
O2172      H2236   0.989       .  S
O2173      C2193   1.294       .  A
O2174      C2195   1.282       .  A
O2175     Zr2185   2.452       .  S
O2175      C2194   1.290       .  A
O2176      C2195   1.279       .  A
O2177      C2194   1.289       .  A
O2178     Zr2186   2.443       .  S
O2178      C2193   1.280       .  A
O2179     Zr2186   2.367       .  S
O2180     Zr2186   2.391   1_554  S
O2181     Zr2184   2.416   1_455  S
O2181      H2218   0.965       .  S
O2182     Zr2185   2.375       .  S
Zr2183     O2208   2.439       .  S
Zr2183     O2198   2.508       .  S
Zr2183     O2189   2.419   1_556  S
Zr2183     O2190   2.397       .  S
Zr2183     O2191   2.367       .  S
Zr2184     O2203   2.436       .  S
Zr2184     O2196   2.436   1_655  S
Zr2184     O2197   2.429       .  S
Zr2184     O2190   2.383       .  S
Zr2184     O2191   2.402       .  S
Zr2185     O2187   2.436       .  S
Zr2185     O2209   2.439       .  S
Zr2186     O2212   2.438   1_556  S
Zr2186     O2213   2.431       .  S
Zr2186     O2188   2.452       .  S
O2187      H2224   0.990       .  S
O2188      H2219   0.988       .  S
O2188      H2233   0.989       .  S
O2190      H2216   0.963       .  S
O2192     Zr2201   2.366       .  S
O2192      H2217   0.964       .  S
C2195      C2239   1.461       .  S
O2197      C2199   1.289       .  A
O2198      C2199   1.293       .  A
O2200     Zr2201   2.434       .  S
O2200      H2229   0.991       .  S
Zr2201     O2205   2.442       .  S
Zr2201     O2206   2.441       .  S
O2202      C2207   1.291       .  A
O2203      H2220   0.990       .  S
O2203      H2235   0.990       .  S
O2205      H2225   0.990       .  S
O2205      H2234   0.991       .  S
O2206      C2207   1.275       .  A
O2208      H2227   0.990       .  S
O2208      H2231   0.989       .  S
O2209      H2223   0.990       .  S
O2209      H2230   0.990       .  S
O2210      C2214   1.281       .  A
O2211      C2214   1.281       .  A
O2212      H2222   0.990       .  S
C2214      C2346   1.462       .  S
C2237      C2238   1.387       .  A
C2237      C2242   1.395       .  A
C2237      C2312   1.464       .  S
C2238      C2239   1.389       .  A
C2238      H2243   1.085       .  S
C2239      C2240   1.398       .  A
C2240      C2241   1.416       .  A
C2240      H2244   1.080       .  S
C2241      C2242   1.418       .  A
C2241      C2250   1.502       .  S
C2242      H2245   1.077       .  S
C2246      C2247   1.447       .  A
C2246      C2251   1.412       .  A
C2247      C2248   1.445       .  A
C2247      H2252   1.082       .  S
C2248      N2255   1.479       .  S
C2248      C2249   1.405       .  A
C2249      C2250   1.391       .  A
C2249      H2253   1.073       .  S
C2250      C2251   1.394       .  A
C2251      H2254   1.074       .  S
N2255      C2259   1.391       .  A
N2255      C2256   1.381       .  A
C2256      C3041   1.390       .  A
C2256      C2297   1.501       .  S
C2257      C3040   1.390       .  A
C2257      C2258   1.342       .  A
C2257      H2260   1.083       .  S
C2258      C3043   1.376       .  A
C2258      H2261   1.083       .  S
C2259      C3042   1.375       .  A
N2262      C2266   1.392       .  A
N2262      C2263   1.383       .  A
N2262      C2335   1.475       .  S
C2263      C2264   1.383       .  A
C2263      C2292   1.494       .  S
C2264      C2265   1.347       .  A
C2264      H3051   1.081       .  S
C2265      C2266   1.378       .  A
C2265      H3052   1.083       .  S
H2267      C3048   1.082       .  S
H2268      C3049   1.083   1_545  S
Zr2269     O2270   2.439       .  S
Zr2269     O2275   2.466       .  S
Zr2269     O3062   2.367       .  S
Zr2269     O2279   2.427   1_556  S
Zr2269     O2280   2.412       .  S
O2270      H2326   0.991       .  S
O2270      H2334   0.989       .  S
O2271      C3075   1.294       .  A
O2272      C2293   1.281       .  A
O2273     Zr2283   2.448   1_665  S
O2273      C3076   1.288       .  A
O2274      C2293   1.282       .  A
O2275      C2292   1.287       .  A
O2276     Zr2284   2.435       .  S
O2276      C2291   1.280       .  A
O2277     Zr3068   2.365       .  S
O2278     Zr3053   2.371   1_545  S
O2278     Zr2283   2.392   1_655  S
O2278      H2313   0.966       .  S
O2280     Zr3067   2.381       .  S
Zr2281     O2300   2.461   1_545  S
Zr2281     O2308   2.399       .  S
Zr2281     O3073   2.371   1_546  S
Zr2281     O2290   2.383   1_545  S
Zr2282     O2301   2.434       .  S
Zr2282     O2294   2.434       .  S
Zr2282     O2295   2.413       .  S
Zr2282     O3072   2.390       .  S
Zr2283     O2285   2.436   1_545  S
Zr2283     O2307   2.437   1_455  S
Zr2283     O3064   2.378   1_445  S
Zr2283     O2287   2.401       .  S
Zr2284     O2311   2.431       .  S
Zr2284     O2286   2.443       .  S
Zr2284     O3061   2.365       .  S
O2285      H2322   0.990   1_565  S
O2286      H2317   0.990       .  S
O2286      H2331   0.988       .  S
O2288     Zr3066   2.387   1_545  S
O2288      H2314   0.963       .  S
O2289     Zr3065   2.371   1_554  S
O2289     Zr2299   2.385   1_554  S
O2290     Zr3083   2.370       .  S
O2290      H2315   0.965       .  S
C2291      O3055   1.295       .  A
C2292      O3057   1.288       .  A
C2293      C2344   1.464       .  S
O2295      C3081   1.285       .  A
O2296      C2297   1.291       .  A
C2297      O3079   1.284       .  A
O2298     Zr2299   2.438       .  S
O2298      H2327   0.991       .  S
Zr2299     O2302   2.432   1_556  S
Zr2299     O2303   2.443       .  S
Zr2299     O2304   2.435       .  S
Zr2299     O3074   2.371       .  S
O2300      C3089   1.292       .  A
O2301      H2318   0.990       .  S
O2301      H2333   0.990       .  S
O2302      H2319   0.990       .  S
O2303      H2323   0.991       .  S
O2303      H2332   0.989       .  S
O2304      C2305   1.274       .  A
C2305      O3084   1.292       .  A
O2306      H2325   0.990       .  S
O2306      H2329   0.990       .  S
O2307      H2321   0.990       .  S
O2307      H2328   0.989       .  S
O2308      C2312   1.279       .  A
O2309      C2312   1.283       .  A
O2311      H2324   0.991   1_655  S
C2335      C2336   1.446       .  A
C2335      C2340   1.404       .  A
C2336      C2337   1.446       .  A
C2336      H2341   1.082       .  S
C2337      C2338   1.416       .  A
C2338      C2339   1.397       .  A
C2338      H2342   1.074       .  S
C2339      C2340   1.390       .  A
C2339      C2348   1.503       .  S
C2340      H2343   1.076       .  S
C2344      C2345   1.386       .  A
C2344      C2349   1.398       .  A
C2345      C2346   1.389       .  A
C2345      H2350   1.085       .  S
C2346      C2347   1.397       .  A
C2347      C2348   1.416       .  A
C2347      H2351   1.080       .  S
C2348      C2349   1.420       .  A
C2349      H2352   1.078       .  S
N2353      C2357   1.391       .  A
N2353      C2354   1.383       .  A
N2353      C2433   1.474       .  S
C2354      C2355   1.384       .  A
C2354      C2390   1.491       .  S
C2355      C2356   1.345       .  A
C2355      H2358   1.082       .  S
C2356      C2357   1.378       .  A
C2356      H2359   1.083       .  S
C2357      C2585   1.498       .  S
N2360      C2364   1.391       .  A
N2360      C2361   1.383       .  A
N2360      C2544   1.481       .  S
C2361      C2362   1.390       .  A
C2361      C2395   1.500       .  S
C2362      C2363   1.339       .  A
C2362      H2365   1.083       .  S
C2363      C2364   1.375       .  A
C2363      H2366   1.083   1_554  S
C2364      C2599   1.487       .  S
Zr2367     O2368   2.441       .  S
Zr2367     O2369   2.470       .  S
Zr2367     O2370   2.405       .  S
Zr2367     O2373   2.461       .  S
Zr2367     O2375   2.364       .  S
Zr2367     O2376   2.370       .  S
Zr2367     O2377   2.428       .  S
Zr2367     O2378   2.414       .  S
O2368      H2424   0.990       .  S
O2368      H2432   0.990       .  S
O2369      C2389   1.295       .  A
O2370      C2391   1.281       .  A
O2371     Zr2381   2.448       .  S
O2371      C2390   1.289       .  A
O2372     Zr2380   2.431       .  S
O2372      C2391   1.282       .  A
O2373      C2390   1.286       .  A
O2374     Zr2382   2.434       .  S
O2374      C2389   1.280       .  A
O2375     Zr2380   2.375       .  S
O2375     Zr2382   2.365       .  S
O2376     Zr2381   2.391       .  S
O2376     Zr2382   2.390       .  S
O2376      H2411   0.966       .  S
O2377     Zr2380   2.411       .  S
O2377     Zr2397   2.410       .  S
O2377      H2414   0.965       .  S
O2378     Zr2381   2.381       .  S
O2378     Zr2397   2.396       .  S
Zr2379     O2404   2.440       .  S
Zr2379     O2398   2.457       .  S
Zr2379     O2406   2.399       .  S
Zr2379     O2394   2.487       .  S
Zr2379     O2385   2.418       .  S
Zr2379     O2386   2.401       .  S
Zr2379     O2387   2.371       .  S
Zr2379     O2388   2.388       .  S
Zr2380     O2399   2.433       .  S
Zr2380     O2392   2.435       .  S
Zr2380     O2393   2.416       .  S
Zr2380     O2386   2.388       .  S
Zr2380     O2387   2.406       .  S
Zr2381     O2383   2.436       .  S
Zr2381     O2405   2.436       .  S
Zr2381     O2407   2.431       .  S
Zr2381     O2385   2.399       .  S
Zr2381     O2388   2.383       .  S
Zr2382     O2408   2.437       .  S
Zr2382     O2409   2.431       .  S
Zr2382     O2384   2.446       .  S
Zr2382     O2385   2.400       .  S
Zr2382     O2386   2.389       .  S
O2383      H2420   0.990       .  S
O2384      H2415   0.990       .  S
O2384      H2429   0.988       .  S
O2386      H2412   0.962       .  S
O2387     Zr2397   2.385       .  S
O2388     Zr2397   2.371       .  S
O2388      H2413   0.965       .  S
C2389      C2553   1.496       .  S
C2391      C2442   1.464       .  S
O2392      H2428   0.989       .  S
O2393      C2395   1.285       .  A
O2394      C2395   1.290       .  A
O2396     Zr2397   2.439       .  S
O2396      H2425   0.991       .  S
Zr2397     O2400   2.433       .  S
Zr2397     O2401   2.443       .  S
Zr2397     O2402   2.443       .  S
O2398      C2403   1.291       .  A
O2399      H2416   0.990       .  S
O2399      H2431   0.990       .  S
O2400      H2417   0.990       .  S
O2401      H2421   0.991       .  S
O2401      H2430   0.990       .  S
O2402      C2403   1.275       .  A
C2403      C2560   1.489       .  S
O2404      H2423   0.991       .  S
O2404      H2427   0.989       .  S
O2405      H2419   0.990       .  S
O2405      H2426   0.989       .  S
O2406      C2410   1.279       .  A
O2407      C2410   1.283       .  A
O2408      H2418   0.990       .  S
O2409      H2422   0.991       .  S
C2410      C2533   1.465       .  S
C2433      C2434   1.404       .  A
C2433      C2438   1.446       .  A
C2434      C2435   1.391       .  A
C2434      H2439   1.076       .  S
C2435      C2436   1.394       .  A
C2435      C2836   1.502       .  S
C2436      C2437   1.415       .  A
C2436      H2440   1.074       .  S
C2437      N2451   1.487       .  S
C2437      C2438   1.446       .  A
C2438      H2441   1.082       .  S
C2442      C2443   1.398       .  A
C2442      C2447   1.388       .  A
C2443      C2444   1.418       .  A
C2443      H2448   1.079       .  S
C2444      C2445   1.416       .  A
C2444      C2827   1.499   1_554  S
C2445      C2446   1.398       .  A
C2445      H2449   1.081       .  S
C2446      C2447   1.389       .  A
C2446      C2508   1.466       .  S
C2447      H2450   1.085       .  S
N2451      C2455   1.388       .  A
N2451      C2452   1.386       .  A
C2452      C2453   1.392       .  A
C2452      C2493   1.523       .  S
C2453      C2454   1.347       .  A
C2454      C2455   1.376       .  A
C2455      C2697   1.490       .  S
N2458      C2462   1.392       .  A
N2458      C2459   1.389       .  A
N2458      C2540   1.483       .  S
C2459      C2488   1.509       .  S
C2460      C2461   1.344       .  A
C2460      H2463   1.084   1_545  S
C2461      H2464   1.083   1_544  S
C2462      C2683   1.496       .  S
Zr2465     O2466   2.439       .  S
Zr2465     O2467   2.465       .  S
Zr2465     O2468   2.404       .  S
Zr2465     O2471   2.480       .  S
Zr2465     O2473   2.369       .  S
Zr2465     O2475   2.433       .  S
Zr2465     O2476   2.409       .  S
O2466      H2522   0.991       .  S
O2466      H2530   0.989       .  S
O2468      C2489   1.281       .  A
O2469     Zr2479   2.448   1_545  S
O2470     Zr2478   2.418       .  S
O2470      C2489   1.280       .  A
O2471      C2488   1.289       .  A
O2472     Zr2480   2.441       .  S
O2472      C2487   1.279       .  A
O2473     Zr2478   2.386       .  S
O2474     Zr2479   2.392       .  S
O2474     Zr2480   2.392       .  S
O2474      H2509   0.966       .  S
O2475     Zr2478   2.417       .  S
O2475     Zr2495   2.406       .  S
O2475      H2512   0.965       .  S
O2476     Zr2495   2.396       .  S
Zr2477     O2502   2.439       .  S
Zr2477     O2496   2.456       .  S
Zr2477     O2504   2.410       .  S
Zr2477     O2492   2.512       .  S
Zr2477     O2483   2.419       .  S
Zr2477     O2484   2.399       .  S
Zr2477     O2486   2.389       .  S
Zr2478     O2497   2.437       .  S
Zr2478     O2490   2.436       .  S
Zr2478     O2491   2.424       .  S
Zr2478     O2485   2.402       .  S
Zr2479     O2481   2.436       .  S
Zr2479     O2503   2.437       .  S
Zr2479     O2505   2.419       .  S
Zr2479     O2483   2.401       .  S
Zr2479     O2486   2.387       .  S
Zr2480     O2506   2.438       .  S
Zr2480     O2507   2.429       .  S
Zr2480     O2482   2.454       .  S
Zr2480     O2483   2.398       .  S
Zr2480     O2484   2.389       .  S
O2481      H2518   0.990       .  S
O2482      H2513   0.989       .  S
O2482      H2527   0.989       .  S
O2484      H2510   0.962       .  S
O2485     Zr2495   2.387       .  S
O2486      H2511   0.964       .  S
C2487      C2658   1.498       .  S
C2489      C2531   1.460       .  S
O2490      H2526   0.991       .  S
O2492      C2493   1.294       .  A
O2494     Zr2495   2.435       .  S
O2494      H2523   0.991       .  S
Zr2495     O2498   2.433       .  S
Zr2495     O2499   2.445       .  S
Zr2495     O2500   2.431       .  S
O2497      H2514   0.990       .  S
O2497      H2529   0.990       .  S
O2498      H2515   0.991       .  S
O2499      H2519   0.990       .  S
O2499      H2528   0.991       .  S
O2500      C2501   1.273       .  A
C2501      C2651   1.484       .  S
O2502      H2521   0.990       .  S
O2502      H2525   0.990       .  S
O2503      H2517   0.990       .  S
O2503      H2524   0.990       .  S
O2504      C2508   1.282       .  A
O2505      C2508   1.281       .  A
O2506      H2516   0.990       .  S
O2507      H2520   0.991       .  S
C2531      C2532   1.389       .  A
C2531      C2536   1.397       .  A
C2532      C2533   1.386       .  A
C2532      H2537   1.085       .  S
C2533      C2534   1.395       .  A
C2534      C2535   1.419       .  A
C2534      H2538   1.077       .  S
C2535      C2536   1.416       .  A
C2535      C2542   1.502       .  S
C2536      H2539   1.079       .  S
C2540      C2933   1.410   1_554  A
C2540      C2545   1.449       .  A
C2541      C2932   1.411       .  A
C2541      C2542   1.396       .  A
C2541      H2546   1.074       .  S
C2542      C2543   1.391       .  A
C2543      C2936   1.404       .  A
C2543      H2547   1.073       .  S
C2544      C2935   1.406   1_554  A
C2544      C2545   1.448       .  A
C2545      H2548   1.082       .  S
N2549      C2553   1.389       .  A
N2549      C2550   1.387       .  A
N2549      C2638   1.481       .  S
C2550      C2551   1.387       .  A
C2550      C2586   1.509       .  S
C2551      C2552   1.346       .  A
C2551      H2554   1.083       .  S
C2552      C2553   1.377       .  A
C2552      H2555   1.083       .  S
N2556      C2560   1.388       .  A
N2556      C2557   1.384       .  A
N2556      C2729   1.486       .  S
C2557      C2558   1.392       .  A
C2557      C2591   1.518       .  S
C2558      C2559   1.346       .  A
C2558      H2561   1.084       .  S
C2559      C2560   1.375       .  A
C2559      H2562   1.083       .  S
Zr2563     O2956   2.440       .  S
Zr2563     O2565   2.468       .  S
Zr2563     O2566   2.401       .  S
Zr2563     O2961   2.481       .  S
Zr2563     O2571   2.371       .  S
Zr2563     O2572   2.365       .  S
Zr2563     O2966   2.410       .  S
O2564     Zr2955   2.438   1_554  S
O2564      H2620   0.991   1_554  S
O2564      H2628   0.989       .  S
O2565      C2585   1.294       .  A
O2566      C2587   1.280       .  A
O2567     Zr2577   2.448       .  S
O2567      C2586   1.289       .  A
O2568      C2587   1.280       .  A
O2569     Zr2955   2.486   1_554  S
O2569      C2586   1.290       .  A
O2570     Zr2578   2.440       .  S
O2570      C2585   1.279       .  A
O2571     Zr2578   2.367       .  S
O2572     Zr2969   2.389       .  S
O2572     Zr2578   2.391       .  S
O2572      H2999   0.966       .  S
O2573     Zr2576   2.414   1_455  S
O2573     Zr2985   2.402   1_455  S
O2573      H2610   0.964       .  S
O2574     Zr2955   2.407   1_554  S
O2574     Zr2577   2.375       .  S
Zr2575     O2600   2.439       .  S
Zr2575     O2986   2.457       .  S
Zr2575     O2994   2.410       .  S
Zr2575     O2590   2.512       .  S
Zr2575     O2581   2.420       .  S
Zr2575     O2582   2.394       .  S
Zr2575     O2583   2.368       .  S
Zr2575     O2976   2.389       .  S
Zr2576     O2595   2.438       .  S
Zr2576     O2588   2.436   1_655  S
Zr2576     O2589   2.416       .  S
Zr2576     O2582   2.384       .  S
Zr2576     O2583   2.403       .  S
Zr2577     O2579   2.438       .  S
Zr2577     O2601   2.438       .  S
Zr2577     O2964   2.392       .  S
Zr2578     O2604   2.439       .  S
Zr2578     O2605   2.431       .  S
Zr2578     O2580   2.454       .  S
O2579      H2616   0.990       .  S
O2580      H2611   0.989       .  S
O2580      H2625   0.989       .  S
O2582      H2608   0.962       .  S
O2583     Zr2985   2.386       .  S
O2584     Zr2967   2.390   1_554  S
O2584     Zr2593   2.371   1_554  S
O2584      H2609   0.964       .  S
C2587      C2631   1.459       .  S
O2589      C2591   1.286       .  A
O2590      C2591   1.294       .  A
O2592     Zr2593   2.435   1_554  S
O2592      H2621   0.991       .  S
Zr2593     O2988   2.434       .  S
Zr2593     O2597   2.445   1_556  S
Zr2593     O2598   2.434   1_556  S
Zr2593     O2965   2.405   1_655  S
Zr2593     O2975   2.389       .  S
O2594     Zr2967   2.457       .  S
O2594      C2599   1.292   1_556  A
O2595      H2612   0.990       .  S
O2595      H2627   0.990       .  S
O2596     Zr2985   2.435       .  S
O2596      H3005   0.990       .  S
O2597      H2617   0.990   1_554  S
O2597      H2626   0.991       .  S
O2598      C2599   1.273       .  A
O2600      H2619   0.991       .  S
O2600      H2623   0.989       .  S
O2601      H2615   0.990       .  S
O2601      H2622   0.990       .  S
O2602     Zr2967   2.404   1_554  S
O2602      C2606   1.281       .  A
O2603      C2606   1.280       .  A
O2604      H2614   0.990       .  S
C2606      C2738   1.462       .  S
H2607      O2964   0.966       .  S
H2613      O2988   0.990       .  S
C2629      C2630   1.387       .  A
C2629      C2634   1.396       .  A
C2629      C2704   1.466       .  S
C2630      C2631   1.389       .  A
C2630      H2635   1.085       .  S
C2631      C2632   1.397       .  A
C2632      C2633   1.414       .  A
C2632      H2636   1.080       .  S
C2633      C2634   1.419       .  A
C2633      C2642   1.501       .  S
C2634      H2637   1.078       .  S
C2638      C2639   1.446       .  A
C2638      C2643   1.413       .  A
C2639      C2640   1.444       .  A
C2639      H2644   1.082       .  S
C2640      N2647   1.478       .  S
C2640      C2641   1.404       .  A
C2641      C2642   1.390       .  A
C2641      H2645   1.073       .  S
C2642      C2643   1.395       .  A
C2643      H2646   1.075       .  S
N2647      C2651   1.389       .  A
N2647      C2648   1.380       .  A
C2648      C2689   1.499       .  S
C2649      C2650   1.342       .  A
C2649      H2652   1.083   1_545  S
C2650      H2653   1.083   1_545  S
N2654      C2658   1.391       .  A
N2654      C2655   1.383       .  A
N2654      C2727   1.474       .  S
C2655      C2656   1.384       .  A
C2655      C2684   1.490       .  S
C2656      C2657   1.345       .  A
C2657      C2658   1.378       .  A
Zr2661     O2662   2.440       .  S
Zr2661     O3055   2.468   1_565  S
Zr2661     O3056   2.404       .  S
Zr2661     O2667   2.459       .  S
Zr2661     O3061   2.363   1_565  S
Zr2661     O2671   2.427       .  S
Zr2661     O2672   2.410       .  S
O2662      H2718   0.991       .  S
O2662      H2726   0.989       .  S
O2663     Zr3053   2.468       .  S
O2664     Zr3053   2.407   1_554  S
O2664      C2685   1.281       .  A
O2665     Zr2675   2.442   1_655  S
O2666      C2685   1.281       .  A
O2667      C2684   1.286       .  A
O2668     Zr2676   2.430   1_554  S
O2668      C2683   1.279       .  A
O2669     Zr3053   2.361   1_544  S
O2670     Zr2675   2.392   1_655  S
O2670     Zr3068   2.392       .  S
O2670      H2705   0.965       .  S
O2671      H3100   0.965       .  S
Zr2673     O3090   2.440       .  S
Zr2673     O2692   2.458       .  S
Zr2673     O2700   2.401       .  S
Zr2673     O3080   2.489       .  S
Zr2673     O3072   2.400       .  S
Zr2673     O2682   2.385       .  S
Zr2674     O2693   2.435       .  S
Zr2674     O2686   2.436   1_565  S
Zr2674     O2687   2.408   1_565  S
Zr2674     O3073   2.409       .  S
Zr2675     O2677   2.437       .  S
Zr2675     O2699   2.438   1_455  S
Zr2675     O2679   2.402       .  S
Zr2676     O3094   2.438       .  S
Zr2676     O2703   2.431       .  S
Zr2676     O2678   2.442   1_556  S
Zr2676     O3062   2.390       .  S
Zr2676     O3071   2.397   1_655  S
O2677      H2714   0.990       .  S
O2678      H2709   0.990       .  S
O2678      H2723   0.988       .  S
O2679     Zr3068   2.403   1_455  S
O2680     Zr3065   2.404   1_554  S
O2680      H2706   0.961       .  S
O2681     Zr3066   2.406       .  S
O2681     Zr2691   2.383       .  S
O2682      H2707   0.965       .  S
C2685      C2736   1.461       .  S
O2688     Zr3065   2.490   1_554  S
O2688      C2689   1.290       .  A
O2690     Zr2691   2.437       .  S
O2690      H2719   0.991       .  S
Zr2691     O2694   2.435       .  S
Zr2691     O2695   2.441       .  S
Zr2691     O2696   2.444       .  S
O2693      H2710   0.990       .  S
O2693      H2725   0.990       .  S
O2694      H2711   0.990       .  S
O2695      H2715   0.991       .  S
O2695      H2724   0.989       .  S
O2696      C2697   1.276       .  A
O2698     Zr3065   2.439   1_554  S
O2698      H2717   0.990   1_554  S
O2698      H2721   0.989       .  S
O2699      H2713   0.990       .  S
O2699      H2720   0.990       .  S
O2700      C2704   1.280       .  A
O2701      C2704   1.283       .  A
O2702     Zr3068   2.440       .  S
O2702      H3104   0.990       .  S
O2703      H2716   0.991   1_656  S
H2708      O3063   0.965       .  S
H2712      O3094   0.990       .  S
C2727      C2728   1.446       .  A
C2727      C2732   1.403       .  A
C2728      C2729   1.446       .  A
C2728      H2733   1.082       .  S
C2729      C2730   1.414       .  A
C2730      C2731   1.396       .  A
C2730      H2734   1.074       .  S
C2731      C2732   1.390       .  A
C2731      C2740   1.500       .  S
C2732      H2735   1.076       .  S
C2736      C2737   1.386       .  A
C2736      C2741   1.398       .  A
C2737      C2738   1.388       .  A
C2737      H2742   1.085       .  S
C2738      C2739   1.397       .  A
C2739      C2740   1.415       .  A
C2739      H2743   1.080       .  S
C2740      C2741   1.419       .  A
C2741      H2744   1.078       .  S
N2745      C2749   1.391       .  A
N2745      C2746   1.383       .  A
N2745      C2825   1.473       .  S
C2746      C2747   1.384       .  A
C2746      C2782   1.492       .  S
C2747      C2748   1.346       .  A
C2747      H2750   1.083       .  S
C2748      C2749   1.378       .  A
C2748      H2751   1.083       .  S
C2749      C2977   1.499       .  S
N2752      C2756   1.390       .  A
N2752      C2753   1.380       .  A
N2752      C2936   1.479       .  S
C2753      C2754   1.391       .  A
C2753      C2787   1.499       .  S
C2754      C2755   1.342       .  A
C2754      H2757   1.083       .  S
C2755      C2756   1.376       .  A
C2755      H2758   1.083       .  S
C2756      C2991   1.486       .  S
Zr2759     O2760   2.440       .  S
Zr2759     O2761   2.474       .  S
Zr2759     O2762   2.405       .  S
Zr2759     O2765   2.462       .  S
Zr2759     O2767   2.364       .  S
Zr2759     O2768   2.369       .  S
Zr2759     O2769   2.428       .  S
Zr2759     O2770   2.413       .  S
O2760      H2816   0.990       .  S
O2760      H2824   0.989       .  S
O2761      C2781   1.296       .  A
O2762      C2783   1.280       .  A
O2763     Zr2773   2.450       .  S
O2763      C2782   1.289       .  A
O2764     Zr2772   2.428       .  S
O2764      C2783   1.282       .  A
O2765      C2782   1.286       .  A
O2766     Zr2774   2.435       .  S
O2766      C2781   1.278       .  A
O2767     Zr2772   2.374       .  S
O2767     Zr2774   2.366       .  S
O2768     Zr2773   2.390       .  S
O2768     Zr2774   2.390       .  S
O2768      H2803   0.966       .  S
O2769     Zr2772   2.411       .  S
O2769     Zr2789   2.411       .  S
O2769      H2806   0.965       .  S
O2770     Zr2773   2.379       .  S
O2770     Zr2789   2.394       .  S
Zr2771     O2796   2.439       .  S
Zr2771     O2790   2.461       .  S
Zr2771     O2798   2.405       .  S
Zr2771     O2786   2.494       .  S
Zr2771     O2777   2.421       .  S
Zr2771     O2778   2.402       .  S
Zr2771     O2779   2.370       .  S
Zr2771     O2780   2.387       .  S
Zr2772     O2791   2.435       .  S
Zr2772     O2784   2.436       .  S
Zr2772     O2785   2.407       .  S
Zr2772     O2778   2.391       .  S
Zr2772     O2779   2.407       .  S
Zr2773     O2775   2.436       .  S
Zr2773     O2797   2.437       .  S
Zr2773     O2799   2.430       .  S
Zr2773     O2777   2.400       .  S
Zr2773     O2780   2.381       .  S
Zr2774     O2800   2.439       .  S
Zr2774     O2801   2.429       .  S
Zr2774     O2776   2.454       .  S
Zr2774     O2777   2.404       .  S
Zr2774     O2778   2.388       .  S
O2775      H2812   0.990       .  S
O2776      H2807   0.989       .  S
O2776      H2821   0.988       .  S
O2778      H2804   0.963       .  S
O2779     Zr2789   2.384       .  S
O2780     Zr2789   2.371       .  S
O2780      H2805   0.964       .  S
C2781      C2945   1.498       .  S
C2783      C2834   1.462       .  S
O2784      H2820   0.990       .  S
O2785      C2787   1.284       .  A
O2786      C2787   1.291       .  A
O2788     Zr2789   2.440       .  S
O2788      H2817   0.990       .  S
Zr2789     O2792   2.432       .  S
Zr2789     O2793   2.441       .  S
Zr2789     O2794   2.442       .  S
O2790      C2795   1.291       .  A
O2791      H2808   0.990       .  S
O2791      H2823   0.990       .  S
O2792      H2809   0.990       .  S
O2793      H2813   0.991       .  S
O2793      H2822   0.989       .  S
O2794      C2795   1.275       .  A
C2795      C2952   1.490       .  S
O2796      H2815   0.990       .  S
O2796      H2819   0.989       .  S
O2797      H2811   0.990       .  S
O2797      H2818   0.989       .  S
O2798      C2802   1.281       .  A
O2799      C2802   1.283       .  A
O2800      H2810   0.990       .  S
O2801      H2814   0.991       .  S
C2802      C2925   1.466       .  S
C2825      C2826   1.404       .  A
C2825      C2830   1.446       .  A
C2826      C2827   1.389       .  A
C2826      H2831   1.076       .  S
C2827      C2828   1.394       .  A
C2828      C2829   1.414       .  A
C2828      H2832   1.075       .  S
C2829      N2843   1.486       .  S
C2829      C2830   1.446       .  A
C2830      H2833   1.082       .  S
C2834      C2835   1.397       .  A
C2834      C2839   1.387       .  A
C2835      C2836   1.418       .  A
C2835      H2840   1.078       .  S
C2836      C2837   1.418       .  A
C2837      C2838   1.398       .  A
C2837      H2841   1.080       .  S
C2838      C2839   1.389       .  A
C2838      C2900   1.466       .  S
C2839      H2842   1.085       .  S
N2843      C2847   1.389       .  A
N2843      C2844   1.385       .  A
C2844      C2845   1.392       .  A
C2844      C2885   1.521       .  S
C2845      C2846   1.347       .  A
C2846      C2847   1.375       .  A
C2847      C3089   1.490       .  S
N2850      C2854   1.391       .  A
N2850      C2851   1.390       .  A
N2850      C2932   1.482       .  S
C2851      C2880   1.510       .  S
C2852      C2853   1.343       .  A
C2852      H2855   1.083   1_545  S
C2853      H2856   1.083   1_545  S
C2854      C3075   1.498       .  S
Zr2857     O2858   2.439       .  S
Zr2857     O2859   2.471       .  S
Zr2857     O2860   2.407       .  S
Zr2857     O2863   2.482       .  S
Zr2857     O2865   2.370       .  S
Zr2857     O2867   2.431       .  S
Zr2857     O2868   2.410       .  S
O2858      H2914   0.991       .  S
O2858      H2922   0.990       .  S
O2860      C2881   1.281       .  A
O2861     Zr2871   2.449   1_545  S
O2862     Zr2870   2.420       .  S
O2862      C2881   1.281       .  A
O2863      C2880   1.289       .  A
O2864     Zr2872   2.439       .  S
O2864      C2879   1.279       .  A
O2865     Zr2870   2.386       .  S
O2866     Zr2871   2.391       .  S
O2866     Zr2872   2.391       .  S
O2866      H2901   0.966       .  S
O2867     Zr2870   2.415       .  S
O2867     Zr2887   2.405       .  S
O2867      H2904   0.964       .  S
O2868     Zr2887   2.398       .  S
Zr2869     O2894   2.439       .  S
Zr2869     O2888   2.459       .  S
Zr2869     O2896   2.409       .  S
Zr2869     O2884   2.511       .  S
Zr2869     O2875   2.420       .  S
Zr2869     O2876   2.398       .  S
Zr2869     O2878   2.389   1_565  S
Zr2870     O2889   2.438       .  S
Zr2870     O2882   2.436       .  S
Zr2870     O2883   2.424       .  S
Zr2870     O2877   2.404       .  S
Zr2871     O2873   2.436       .  S
Zr2871     O2895   2.440       .  S
Zr2871     O2897   2.419       .  S
Zr2871     O2875   2.401       .  S
Zr2871     O2878   2.387   1_565  S
Zr2872     O2898   2.436       .  S
Zr2872     O2899   2.428       .  S
Zr2872     O2874   2.454       .  S
Zr2872     O2875   2.397       .  S
Zr2872     O2876   2.389       .  S
O2873      H2910   0.990       .  S
O2874      H2905   0.989       .  S
O2874      H2919   0.989       .  S
O2876      H2902   0.963       .  S
O2877     Zr2887   2.387       .  S
O2878      H2903   0.964       .  S
C2879      C3050   1.496       .  S
C2881      C2923   1.463       .  S
O2882      H2918   0.991       .  S
O2884      C2885   1.294       .  A
O2886     Zr2887   2.437       .  S
O2886      H2915   0.991       .  S
Zr2887     O2890   2.436       .  S
Zr2887     O2891   2.443       .  S
Zr2887     O2892   2.438       .  S
O2889      H2906   0.990       .  S
O2889      H2921   0.990       .  S
O2890      H2907   0.990       .  S
O2891      H2911   0.990       .  S
O2891      H2920   0.991       .  S
O2892      C2893   1.274       .  A
C2893      C3043   1.488       .  S
O2894      H2913   0.990       .  S
O2894      H2917   0.989       .  S
O2895      H2909   0.990       .  S
O2895      H2916   0.990       .  S
O2896      C2900   1.282       .  A
O2897      C2900   1.281       .  A
O2898      H2908   0.990       .  S
O2899      H2912   0.991       .  S
C2923      C2924   1.389       .  A
C2923      C2928   1.398       .  A
C2924      C2925   1.387       .  A
C2924      H2929   1.085       .  S
C2925      C2926   1.396       .  A
C2926      C2927   1.419       .  A
C2926      H2930   1.077       .  S
C2927      C2928   1.417       .  A
C2927      C2934   1.505       .  S
C2928      H2931   1.079       .  S
C2932      C2937   1.447       .  A
C2933      C2934   1.396       .  A
C2933      H2938   1.073       .  S
C2934      C2935   1.393       .  A
C2935      H2939   1.073       .  S
C2936      C2937   1.446       .  A
C2937      H2940   1.082       .  S
N2941      C2945   1.391       .  A
N2941      C2942   1.389       .  A
N2941      C3030   1.483       .  S
C2942      C2943   1.386       .  A
C2942      C2978   1.511       .  S
C2943      C2944   1.345       .  A
C2943      H2946   1.083       .  S
C2944      C2945   1.376       .  A
C2944      H2947   1.083       .  S
N2948      C2952   1.388       .  A
N2948      C2949   1.386       .  A
N2948      C3121   1.487       .  S
C2949      C2950   1.392       .  A
C2949      C2983   1.523       .  S
C2950      C2951   1.347       .  A
C2950      H2953   1.083       .  S
C2951      C2952   1.375       .  A
C2951      H2954   1.083       .  S
Zr2955     O2957   2.468       .  S
Zr2955     O2958   2.409       .  S
Zr2955     O2963   2.372       .  S
Zr2955     O2964   2.368   1_556  S
O2956      H3012   0.990       .  S
O2956      H3020   0.990       .  S
O2957      C2977   1.294       .  A
O2958      C2979   1.281       .  A
O2959     Zr2969   2.456       .  S
O2959      C2978   1.291       .  A
O2960      C2979   1.281       .  A
O2961      C2978   1.289       .  A
O2962     Zr2970   2.443       .  S
O2962      C2977   1.280       .  A
O2963     Zr2970   2.367       .  S
O2964     Zr2970   2.393   1_554  S
O2965     Zr2968   2.417   1_455  S
O2965      H3002   0.964       .  S
O2966     Zr2969   2.376       .  S
Zr2967     O2992   2.440       .  S
Zr2967     O2982   2.512       .  S
Zr2967     O2973   2.421   1_556  S
Zr2967     O2974   2.396       .  S
Zr2967     O2975   2.367       .  S
Zr2968     O2987   2.435       .  S
Zr2968     O2980   2.436   1_655  S
Zr2968     O2981   2.424       .  S
Zr2968     O2974   2.383       .  S
Zr2968     O2975   2.403       .  S
Zr2969     O2971   2.435       .  S
Zr2969     O2993   2.437       .  S
Zr2970     O2996   2.439   1_556  S
Zr2970     O2997   2.431       .  S
Zr2970     O2972   2.455       .  S
O2971      H3008   0.990       .  S
O2972      H3003   0.989       .  S
O2972      H3017   0.988       .  S
O2974      H3000   0.963       .  S
O2976     Zr2985   2.371       .  S
O2976      H3001   0.964       .  S
C2979      C3023   1.463       .  S
O2981      C2983   1.288       .  A
O2982      C2983   1.294       .  A
O2984     Zr2985   2.435       .  S
O2984      H3013   0.991       .  S
Zr2985     O2989   2.442       .  S
Zr2985     O2990   2.436       .  S
O2986      C2991   1.292       .  A
O2987      H3004   0.990       .  S
O2987      H3019   0.990       .  S
O2989      H3009   0.990       .  S
O2989      H3018   0.990       .  S
O2990      C2991   1.274       .  A
O2992      H3011   0.991       .  S
O2992      H3015   0.990       .  S
O2993      H3007   0.990       .  S
O2993      H3014   0.989       .  S
O2994      C2998   1.282       .  A
O2995      C2998   1.282       .  A
O2996      H3006   0.990       .  S
C2998      C3130   1.466       .  S
C3021      C3022   1.389       .  A
C3021      C3026   1.397       .  A
C3021      C3096   1.469       .  S
C3022      C3023   1.391       .  A
C3022      H3027   1.084       .  S
C3023      C3024   1.399       .  A
C3024      C3025   1.414       .  A
C3024      H3028   1.080       .  S
C3025      C3026   1.419       .  A
C3025      C3034   1.501       .  S
C3026      H3029   1.078       .  S
C3030      C3031   1.448       .  A
C3030      C3035   1.413       .  A
C3031      C3032   1.446       .  A
C3031      H3036   1.082       .  S
C3032      N3039   1.478       .  S
C3032      C3033   1.404       .  A
C3033      C3034   1.389       .  A
C3033      H3037   1.074       .  S
C3034      C3035   1.396       .  A
C3035      H3038   1.075       .  S
N3039      C3043   1.390       .  A
N3039      C3040   1.381       .  A
C3040      C3081   1.498       .  S
C3041      C3042   1.342       .  A
C3041      H3044   1.083   1_545  S
C3042      H3045   1.083   1_545  S
N3046      C3050   1.389       .  A
N3046      C3047   1.383       .  A
N3046      C3119   1.474       .  S
C3047      C3048   1.384       .  A
C3047      C3076   1.492       .  S
C3048      C3049   1.345       .  A
C3049      C3050   1.378       .  A
Zr3053     O3054   2.438       .  S
Zr3053     O3059   2.463       .  S
Zr3053     O3063   2.425   1_556  S
Zr3053     O3064   2.409       .  S
O3054      H3110   0.991       .  S
O3054      H3118   0.989       .  S
O3056      C3077   1.280       .  A
O3057     Zr3067   2.447       .  S
O3058      C3077   1.283       .  A
O3059      C3076   1.287       .  A
O3060     Zr3068   2.440       .  S
O3060      C3075   1.279       .  A
O3062     Zr3067   2.391       .  S
O3062      H3097   0.966       .  S
Zr3065     O3084   2.463       .  S
Zr3065     O3092   2.403       .  S
Zr3065     O3074   2.387       .  S
Zr3066     O3085   2.436       .  S
Zr3066     O3078   2.435   1_565  S
Zr3066     O3079   2.410   1_565  S
Zr3067     O3069   2.437   1_655  S
Zr3067     O3091   2.438       .  S
Zr3067     O3071   2.402   1_655  S
Zr3068     O3095   2.430       .  S
Zr3068     O3070   2.454       .  S
O3069      H3106   0.990       .  S
O3070      H3101   0.988       .  S
O3070      H3115   0.988       .  S
O3072      H3098   0.963       .  S
O3073     Zr3083   2.383   1_554  S
O3074      H3099   0.964       .  S
C3077      C3128   1.465       .  S
O3080      C3081   1.290       .  A
O3082     Zr3083   2.435       .  S
O3082      H3111   0.991       .  S
Zr3083     O3086   2.438   1_556  S
Zr3083     O3087   2.443       .  S
Zr3083     O3088   2.442       .  S
O3085      H3102   0.990       .  S
O3085      H3117   0.990       .  S
O3086      H3103   0.990       .  S
O3087      H3107   0.991       .  S
O3087      H3116   0.989       .  S
O3088      C3089   1.275       .  A
O3090      H3109   0.990       .  S
O3090      H3113   0.990       .  S
O3091      H3105   0.990       .  S
O3091      H3112   0.988       .  S
O3092      C3096   1.280       .  A
O3093      C3096   1.284       .  A
O3095      H3108   0.991   1_655  S
C3119      C3120   1.444       .  A
C3119      C3124   1.406       .  A
C3120      C3121   1.445       .  A
C3120      H3125   1.082       .  S
C3121      C3122   1.416       .  A
C3122      C3123   1.397       .  A
C3122      H3126   1.074       .  S
C3123      C3124   1.393       .  A
C3123      C3132   1.504       .  S
C3124      H3127   1.076       .  S
C3128      C3129   1.388       .  A
C3128      C3133   1.399       .  A
C3129      C3130   1.389       .  A
C3129      H3134   1.085       .  S
C3130      C3131   1.399       .  A
C3131      C3132   1.417       .  A
C3131      H3135   1.080       .  S
C3132      C3133   1.419       .  A
C3133      H3136   1.078       .  S
