geometry optimzed in LAMMPS
_audit_creation_date              2020-11-30 
_audit_creation_method            'lammps2cif' 
_symmetry_space_group_name_H-M    'P1' 
_symmetry_Int_Tables_number       1 
_symmetry_cell_setting            triclinic 
loop_ 
_symmetry_equiv_pos_as_xyz 
  x,y,z 
_cell_length_a                    31.27780127 
_cell_length_b                    32.16108477746445 
_cell_length_c                    38.15775973437189 
_cell_angle_alpha                 89.45919207284665 
_cell_angle_beta                  89.75338279441002 
_cell_angle_gamma                 89.45342390934101 
loop_ 
_atom_site_label 
_atom_site_type_symbol 
_atom_site_fract_x 
_atom_site_fract_y 
_atom_site_fract_z 
_atom_site_charge 
C1          C  0.23721270  0.98323942  0.50724861    -0.01600
O2          O  0.45938369  0.03617840  0.21783733    -0.72100
O3          O  0.55118245  0.03874755  0.29177449    -0.73100
O4          O  0.54999552  0.04519896  0.21745959    -0.61700
O5          O  0.46083406  0.03155860  0.29166183    -0.70100
O6          O  0.46659395  0.96325714  0.28911800    -0.69600
O7          O  0.55803801  0.97672151  0.21496609    -0.60900
O8          O  0.55704435  0.97032780  0.28882871    -0.73400
O9          O  0.46767160  0.96773194  0.21494950    -0.72200
Cu10       Cu  0.50516428  0.04031095  0.25476583     1.04600
Cu11       Cu  0.51262042  0.96714746  0.25182328     1.04300
C12         C  0.44904910  0.00113503  0.20490344     0.94100
C13         C  0.56834104  0.00455105  0.30228625     0.93300
C14         C  0.56824390  0.01323719  0.20446004     0.85400
C15         C  0.44895747  0.99565571  0.30216644     0.91700
C16         C  0.78432632  0.01345428  0.00405612    -0.01600
C17         C  0.02541324  0.23153818  0.99891376    -0.01600
O18         O  0.03530980  0.45597213  0.28127050    -0.72100
O19         O  0.02808707  0.55062547  0.21066854    -0.73100
O20         O  0.03106416  0.54400228  0.28455808    -0.61700
O21         O  0.03428536  0.46156260  0.20660996    -0.70100
O22         O  0.96345517  0.45864538  0.20697490    -0.69600
O23         O  0.96053271  0.54081136  0.28690424    -0.60900
O24         O  0.95735213  0.54708306  0.21245091    -0.73400
O25         O  0.96459221  0.45240664  0.28160788    -0.72200
Cu26       Cu  0.03462378  0.50308074  0.24565312     1.04600
Cu27       Cu  0.95901890  0.49956340  0.24699579     1.04300
C28         C  0.00079600  0.43947295  0.29272032     0.94100
C29         C  0.99135344  0.56427526  0.20102141     0.93300
C30         C  0.99575276  0.55544303  0.29833794     0.85400
C31         C  0.99960383  0.44717434  0.19430856     0.91700
C32         C  0.99342438  0.76742601  0.99432326    -0.01600
C33         C  0.99397731  0.72158776  0.40090886    -0.11000
C34         C  0.99077402  0.67920562  0.40839047     0.11600
C35         C  0.98496930  0.66607953  0.44328765    -0.02800
C36         C  0.98584108  0.69584387  0.46991265    -0.05500
C37         C  0.99098496  0.73938620  0.46368458    -0.16300
C38         C  0.98988817  0.75231041  0.42706343     0.02600
C39         C  0.99178270  0.64901966  0.37901647     0.12500
C40         C  0.97795619  0.62046513  0.45254623     0.63200
H41         H  0.98158301  0.68397492  0.49602291     0.12600
C42         C  0.97992147  0.79646449  0.41361005     0.55300
H43         H  0.99746815  0.73032295  0.37360948     0.08400
C44         C  0.95659864  0.64350366  0.35631859    -0.05400
C45         C  0.95923495  0.61244721  0.33059088    -0.06200
C46         C  0.99556833  0.58670124  0.32699704    -0.15800
C47         C  0.03048902  0.59191342  0.35037703    -0.01300
C48         C  0.02816971  0.62375483  0.37536606    -0.08900
C49         C  0.91635233  0.67011223  0.35926742     0.65400
H50         H  0.93292399  0.60846217  0.31264432     0.10800
C51         C  0.06959817  0.56346444  0.35022567     0.63800
H52         H  0.05472851  0.62890697  0.39285780     0.08200
F53         F  0.93832258  0.80707172  0.42212585    -0.19300
F54         F  0.98298131  0.79949742  0.37745128    -0.15500
F55         F  0.00733615  0.82561561  0.42654126    -0.19000
F56         F  0.01528511  0.59807803  0.44711862    -0.22400
F57         F  0.94590927  0.60432502  0.43201940    -0.23900
F58         F  0.96589620  0.61501577  0.48716947    -0.17800
F59         F  0.09499447  0.56923707  0.37939068    -0.20300
F60         F  0.09425805  0.57139656  0.32080452    -0.21500
F61         F  0.05702025  0.52236854  0.35048564    -0.18700
F62         F  0.88440761  0.65651583  0.33726596    -0.18800
F63         F  0.92539115  0.71079693  0.35022316    -0.22600
F64         F  0.90075430  0.66877117  0.39321394    -0.24200
C65         C  0.02119060  0.68665490  0.06974075    -0.11000
C66         C  0.98607744  0.69073374  0.09202639     0.11600
C67         C  0.95662846  0.72339118  0.08620882    -0.02800
C68         C  0.96023350  0.74748345  0.05525940    -0.05500
C69         C  0.99387652  0.74211591  0.03038703    -0.16300
C70         C  0.02753969  0.71277157  0.04026318     0.02600
C71         C  0.98239835  0.66037546  0.12168224     0.12500
C72         C  0.92246431  0.73364290  0.11329316     0.63200
H73         H  0.93627489  0.77109785  0.05099146     0.12600
C74         C  0.07126200  0.70862147  0.02209673     0.55300
H75         H  0.04441068  0.66276185  0.07651569     0.08400
C76         C  0.96180519  0.62168758  0.11753903    -0.05400
C77         C  0.96351697  0.59232032  0.14506219    -0.06200
C78         C  0.98768709  0.59905860  0.17530161    -0.15800
C79         C  0.00738058  0.63815190  0.17999759    -0.01300
C80         C  0.00425644  0.66833234  0.15296242    -0.08900
C81         C  0.94085867  0.61019525  0.08320875     0.65400
H82         H  0.94764071  0.56279106  0.14240509     0.10800
C83         C  0.03053268  0.64829294  0.21369702     0.63800
H84         H  0.02005221  0.69796432  0.15551081     0.08200
F85         F  0.09473233  0.67505888  0.03485917    -0.19300
F86         F  0.09529558  0.74352129  0.02835911    -0.15500
F87         F  0.06773368  0.70268288  0.98657858    -0.19000
F88         F  0.94189611  0.74440990  0.14435380    -0.22400
F89         F  0.89665239  0.69969692  0.11935525    -0.23900
F90         F  0.89665803  0.76662224  0.10272766    -0.17800
F91         F  0.06655836  0.62340352  0.21711582    -0.20300
F92         F  0.00367484  0.64155720  0.24205697    -0.21500
F93         F  0.04332160  0.68937652  0.21433607    -0.18700
F94         F  0.92118431  0.57184942  0.08520888    -0.18800
F95         F  0.97172604  0.60834646  0.05729396    -0.22600
F96         F  0.91028608  0.63949761  0.07392126    -0.24200
C97         C  0.98244040  0.34102559  0.34762680    -0.11000
C98         C  0.00761060  0.34933709  0.37704946     0.11600
C99         C  0.03124335  0.38666395  0.37812617    -0.02800
C100        C  0.02887912  0.41445665  0.34951212    -0.05500
C101        C  0.00277099  0.40688117  0.32052760    -0.16300
C102        C  0.97892698  0.36955331  0.31944739     0.02600
C103        C  0.01051383  0.31724999  0.40544602     0.12500
C104        C  0.05852238  0.39739112  0.40949582     0.63200
H105        H  0.04689528  0.44296701  0.34986289     0.12600
C106        C  0.95074697  0.35927691  0.28846228     0.55300
H107        H  0.96531070  0.31194349  0.34708231     0.08400
C108        C  0.97901708  0.31281782  0.43146804    -0.05400
C109        C  0.98560139  0.28323180  0.45822099    -0.06200
C110        C  0.02185178  0.25580425  0.46018355    -0.15800
C111        C  0.05076367  0.25715652  0.43007254    -0.01300
C112        C  0.04491778  0.28938706  0.40479972    -0.08900
C113        C  0.93828860  0.33903470  0.43089528     0.65400
H114        H  0.96130779  0.28088572  0.47829425     0.10800
C115        C  0.08485155  0.22474716  0.42006165     0.63800
H116        H  0.06675736  0.29286696  0.38292559     0.08200
F117        F  0.91625831  0.38643354  0.28717825    -0.19300
F118        F  0.93494457  0.31926711  0.29082500    -0.15500
F119        F  0.97401714  0.36249333  0.25765867    -0.19000
F120        F  0.09097466  0.36827873  0.41332295    -0.22400
F121        F  0.03351372  0.39786142  0.43944035    -0.23900
F122        F  0.07705475  0.43613131  0.40588485    -0.17800
F123        F  0.06519477  0.18790760  0.41186773    -0.20300
F124        F  0.11505844  0.21884644  0.44575521    -0.21500
F125        F  0.10768772  0.23610615  0.39034491    -0.18700
F126        F  0.91274995  0.33165667  0.45998890    -0.18800
F127        F  0.91480716  0.32975635  0.40142478    -0.22600
F128        F  0.94814069  0.38083173  0.43021892    -0.24200
C129        C  0.04864908  0.32761321  0.06032176    -0.11000
C130        C  0.01308487  0.32683725  0.08251038     0.11600
C131        C  0.97929833  0.29989419  0.07500922    -0.02800
C132        C  0.98395535  0.27217202  0.04699060    -0.05500
C133        C  0.02252593  0.26729240  0.02738314    -0.16300
C134        C  0.05348327  0.30002098  0.03186000     0.02600
C135        C  0.01040034  0.35730009  0.11158772     0.12500
C136        C  0.93829555  0.30034240  0.09664813     0.63200
H137        H  0.95639289  0.25399068  0.04076477     0.12600
C138        C  0.08855998  0.31090340  0.00558257     0.55300
H139        H  0.07206780  0.35151254  0.06494452     0.08400
C140        C  0.02973033  0.34959119  0.14452721    -0.05400
C141        C  0.02491516  0.37948946  0.17109013    -0.06200
C142        C  0.00186341  0.41664818  0.16545090    -0.15800
C143        C  0.98392022  0.42491624  0.13205166    -0.01300
C144        C  0.98840924  0.39488898  0.10564018    -0.08900
C145        C  0.05586044  0.31028031  0.15122310     0.65400
H146        H  0.03933304  0.37419668  0.19652640     0.10800
C147        C  0.96230939  0.46623348  0.12384197     0.63800
H148        H  0.97493590  0.40053992  0.07990936     0.08200
F149        F  0.11870870  0.33709967  0.01973517    -0.19300
F150        F  0.07065865  0.33131387  0.97728230    -0.15500
F151        F  0.10707355  0.27648078  0.48848856    -0.19000
F152        F  0.91786778  0.33841178  0.09298937    -0.22400
F153        F  0.94763168  0.29355305  0.13162357    -0.23900
F154        F  0.91015164  0.26984001  0.08638567    -0.17800
F155        F  0.94932926  0.46897705  0.08925006    -0.20300
F156        F  0.99077758  0.49798036  0.12982949    -0.21500
F157        F  0.92662097  0.47144841  0.14488796    -0.18700
F158        F  0.07023461  0.30786519  0.18545036    -0.18800
F159        F  0.09109401  0.30969826  0.12922168    -0.22600
F160        F  0.03142325  0.27556369  0.14496369    -0.24200
C161        C  0.85807954  0.91445235  0.02493598    -0.11000
C162        C  0.85089817  0.89080915  0.50105902     0.11600
C163        C  0.81779410  0.89958985  0.47719239    -0.02800
C164        C  0.79185449  0.93499469  0.48293247    -0.05500
C165        C  0.80576061  0.96760539  0.00530951    -0.16300
C166        C  0.83503522  0.95141490  0.03189115     0.02600
C167        C  0.88540214  0.85956693  0.49482130     0.12500
C168        C  0.81151287  0.87328977  0.44475323     0.63200
H169        H  0.76509904  0.93948929  0.46566506     0.12600
C170        C  0.84478774  0.97073890  0.06746020     0.55300
H171        H  0.88318298  0.90381567  0.04241681     0.08400
C172        C  0.92706606  0.87238853  0.48655992    -0.05400
C173        C  0.96031833  0.84301300  0.48768315    -0.06200
C174        C  0.95331705  0.79800214  0.98989102    -0.15800
C175        C  0.90869794  0.78582052  0.98952517    -0.01300
C176        C  0.87668856  0.81729988  0.99157019    -0.08900
C177        C  0.93676117  0.91748275  0.47738491     0.65400
H178        H  0.99171053  0.85518234  0.48316489     0.10800
C179        C  0.89274369  0.74144976  0.98400733     0.63800
H180        H  0.84368969  0.80922640  0.99645386     0.08200
F181        F  0.86870670  0.94429055  0.08872254    -0.19300
F182        F  0.80804065  0.97873251  0.08616405    -0.15500
F183        F  0.86865454  0.00599445  0.06329094    -0.19000
F184        F  0.80144664  0.83303928  0.45438327    -0.22400
F185        F  0.84865068  0.87282057  0.42494286    -0.23900
F186        F  0.77882937  0.88859402  0.42378761    -0.17800
F187        F  0.84862149  0.73917285  0.98633504    -0.20300
F188        F  0.90872463  0.71372398  0.00837276    -0.21500
F189        F  0.90359416  0.72847218  0.95074216    -0.18700
F190        F  0.97634735  0.92159923  0.46161653    -0.18800
F191        F  0.93618445  0.94116124  0.50740156    -0.22600
F192        F  0.90682997  0.93297790  0.45404529    -0.24200
C193        C  0.83847145  0.12300916  0.99513958    -0.11000
C194        C  0.88014405  0.10842255  0.49197216     0.11600
C195        C  0.89123814  0.06587536  0.49379752    -0.02800
C196        C  0.85877505  0.03658838  0.49870977    -0.05500
C197        C  0.81708034  0.04959306  0.99938736    -0.16300
C198        C  0.80550223  0.09331128  0.99582422     0.02600
C199        C  0.91282317  0.14174274  0.49335093     0.12500
C200        C  0.93675666  0.04918795  0.49046311     0.63200
H201        H  0.86937864  0.00478056  0.50090087     0.12600
C202        C  0.76013290  0.11073756  0.99049323     0.55300
H203        H  0.83097188  0.15592303  0.99506827     0.08400
C204        C  0.92478093  0.16516664  0.46379289    -0.05400
C205        C  0.95877985  0.19315263  0.46673401    -0.06200
C206        C  0.98396478  0.20203273  0.00071911    -0.15800
C207        C  0.97192715  0.17517782  0.03021548    -0.01300
C208        C  0.93567481  0.14969543  0.02692116    -0.08900
C209        C  0.90296095  0.15908601  0.42861577     0.65400
H210        H  0.96814238  0.20805353  0.44267220     0.10800
C211        C  0.99620652  0.16931864  0.06493726     0.63800
H212        H  0.92502984  0.13017308  0.04844320     0.08200
F213        F  0.74690223  0.10299295  0.95672932    -0.19300
F214        F  0.75831598  0.15344657  0.99477546    -0.15500
F215        F  0.73122640  0.09454270  0.01398168    -0.19000
F216        F  0.94901152  0.03133547  0.52200316    -0.22400
F217        F  0.96620544  0.07913498  0.48122696    -0.23900
F218        F  0.93809163  0.01911233  0.46478911    -0.17800
F219        F  0.97787426  0.13945186  0.08650865    -0.20300
F220        F  0.99625211  0.20497805  0.08437770    -0.21500
F221        F  0.03726900  0.15555155  0.05903944    -0.18700
F222        F  0.92134984  0.18268286  0.40213111    -0.18800
F223        F  0.86039090  0.17061276  0.43095142    -0.22600
F224        F  0.90582954  0.11775624  0.41909106    -0.24200
C225        C  0.64099916  0.97474129  0.37906681    -0.11000
C226        C  0.66366932  0.01158052  0.38317360     0.11600
C227        C  0.65702935  0.04523320  0.35963308    -0.02800
C228        C  0.62597485  0.04125083  0.33337475    -0.05500
C229        C  0.60175892  0.00487636  0.32991851    -0.16300
C230        C  0.60962066  0.97066570  0.35314216     0.02600
C231        C  0.69287080  0.01407329  0.41351372     0.12500
C232        C  0.68220894  0.08524561  0.36248705     0.63200
H233        H  0.62030409  0.06680882  0.31525707     0.12600
C234        C  0.58437505  0.93049904  0.35195614     0.55300
H235        H  0.64756670  0.94936881  0.39719861     0.08400
C236        C  0.67735864  0.02182917  0.44740390    -0.05400
C237        C  0.70637838  0.02184043  0.47524802    -0.06200
C238        C  0.75121502  0.01433818  0.47133169    -0.15800
C239        C  0.76661240  0.01015906  0.43545960    -0.01300
C240        C  0.73650709  0.00801810  0.40806051    -0.08900
C241        C  0.62991727  0.02978024  0.45423232     0.65400
H242        H  0.69296656  0.02966796  0.50024717     0.10800
C243        C  0.81358201  0.01142341  0.42379074     0.63800
H244        H  0.74679186  0.00300466  0.38129200     0.08200
F245        F  0.59449196  0.90395225  0.37955527    -0.19300
F246        F  0.59334879  0.90962504  0.32123683    -0.15500
F247        F  0.54106494  0.93928980  0.35403944    -0.19000
F248        F  0.72531781  0.07701369  0.35801737    -0.22400
F249        F  0.67570415  0.10273979  0.39504052    -0.23900
F250        F  0.67006803  0.11424450  0.33729445    -0.17800
F251        F  0.81874609  0.99973718  0.38916665    -0.20300
F252        F  0.83927809  0.98504011  0.44294618    -0.21500
F253        F  0.82852294  0.05151799  0.42630540    -0.18700
F254        F  0.62190542  0.04175649  0.48841457    -0.18800
F255        F  0.60720732  0.99393903  0.44812839    -0.22600
F256        F  0.61481877  0.06108411  0.43236883    -0.24200
C257        C  0.72590122  0.04657861  0.09262401    -0.11000
C258        C  0.69516748  0.01575477  0.09451342     0.11600
C259        C  0.69497424  0.98407972  0.06947632    -0.02800
C260        C  0.72683973  0.98393484  0.04346458    -0.05500
C261        C  0.75763501  0.01610549  0.03940605    -0.16300
C262        C  0.75936121  0.04625042  0.06776098     0.02600
C263        C  0.66424632  0.01699694  0.12399289     0.12500
C264        C  0.65945651  0.95213208  0.06897832     0.63200
H265        H  0.72560643  0.95993426  0.02385600     0.12600
C266        C  0.79402517  0.07764160  0.07733762     0.55300
H267        H  0.72489017  0.07034682  0.11264202     0.08400
C268        C  0.67250085  0.99626764  0.15614071    -0.05400
C269        C  0.63985135  0.99507133  0.18153933    -0.06200
C270        C  0.60183108  0.01811785  0.17735306    -0.15800
C271        C  0.59686016  0.04443740  0.14751160    -0.01300
C272        C  0.62736091  0.04166974  0.12038457    -0.08900
C273        C  0.71618889  0.97741793  0.16408720     0.65400
H274        H  0.64430263  0.97713691  0.20544341     0.10800
C275        C  0.56087073  0.07636445  0.14470285     0.63800
H276        H  0.62335780  0.05959801  0.09643194     0.08200
F277        F  0.80207919  0.07493778  0.11300061    -0.19300
F278        F  0.77954056  0.11753334  0.07010267    -0.15500
F279        F  0.83294444  0.07210591  0.06180600    -0.19000
F280        F  0.62046386  0.97227046  0.06512691    -0.22400
F281        F  0.65906526  0.92949022  0.09992254    -0.23900
F282        F  0.66419928  0.92451310  0.04159449    -0.17800
F283        F  0.56594829  0.10604954  0.17029731    -0.20300
F284        F  0.52163717  0.05776307  0.14910890    -0.21500
F285        F  0.56082904  0.09650996  0.11247647    -0.18700
F286        F  0.71788404  0.96041582  0.19752441    -0.18800
F287        F  0.74686662  0.00803761  0.16182411    -0.22600
F288        F  0.72614473  0.94651099  0.14044907    -0.24200
C289        C  0.18303616  0.87135393  0.99133415    -0.11000
C290        C  0.14160073  0.88464777  0.48535429     0.11600
C291        C  0.13107578  0.92716383  0.48207229    -0.02800
C292        C  0.16276212  0.95675282  0.48810222    -0.05500
C293        C  0.20346051  0.94458426  0.00019210    -0.16300
C294        C  0.21559191  0.90123821  0.99551335     0.02600
C295        C  0.10825794  0.85194405  0.48881401     0.12500
C296        C  0.08682045  0.94330749  0.47250200     0.63200
H297        H  0.15260764  0.98860405  0.48469274     0.12600
C298        C  0.26126410  0.88440343  0.99516250     0.55300
H299        H  0.19044153  0.83852573  0.99337658     0.08400
C300        C  0.10035667  0.82210742  0.46292966    -0.05400
C301        C  0.06674981  0.79378407  0.46816886    -0.06200
C302        C  0.03641306  0.79359811  0.99543208    -0.15800
C303        C  0.04622129  0.82328108  0.02280328    -0.01300
C304        C  0.08113654  0.85015766  0.01807435    -0.08900
C305        C  0.12602192  0.82147271  0.42904004     0.65400
H306        H  0.06297816  0.77024305  0.44867553     0.10800
C307        C  0.02234266  0.82769074  0.05779917     0.63800
H308        H  0.08869936  0.87307604  0.03765553     0.08200
F309        F  0.28299616  0.89895240  0.96610293    -0.19300
F310        F  0.26297381  0.84141676  0.99353452    -0.15500
F311        F  0.28201640  0.89503738  0.02511908    -0.19000
F312        F  0.06936530  0.96414725  0.50078400    -0.22400
F313        F  0.05939975  0.91212726  0.46285729    -0.23900
F314        F  0.08999985  0.97070385  0.44444824    -0.17800
F315        F  0.03053399  0.79340230  0.07881484    -0.20300
F316        F  0.97903521  0.83294525  0.05322103    -0.21500
F317        F  0.03549833  0.86197269  0.07648674    -0.18700
F318        F  0.10921441  0.79417859  0.40499396    -0.18800
F319        F  0.16768056  0.80934074  0.43577622    -0.22600
F320        F  0.12587959  0.86070673  0.41384722    -0.24200
C321        C  0.15028016  0.07230038  0.02790751    -0.11000
C322        C  0.16264134  0.10264678  0.50050114     0.11600
C323        C  0.20017882  0.09755154  0.48066743    -0.02800
C324        C  0.22397705  0.06025494  0.48461198    -0.05500
C325        C  0.20890810  0.02547423  0.00938223    -0.16300
C326        C  0.17490276  0.03619597  0.03396738     0.02600
C327        C  0.13160197  0.13754851  0.49569623     0.12500
C328        C  0.21533665  0.13195794  0.45621953     0.62600
H329        H  0.25320858  0.05797068  0.46976892     0.12600
C330        C  0.16366441  0.01245025  0.06755701     0.55300
H331        H  0.12289228  0.07958631  0.04426490     0.08400
C332        C  0.09352920  0.13170002  0.47713513    -0.05400
C333        C  0.06172542  0.16269429  0.47847127    -0.06200
C334        C  0.06415595  0.19965057  0.00249513    -0.15800
C335        C  0.10055354  0.19907628  0.02626798    -0.01300
C336        C  0.13406048  0.17008276  0.02004818    -0.08900
C337        C  0.08591870  0.09196719  0.45675596     0.65400
H338        H  0.03394736  0.15793162  0.46252782     0.10800
C339        C  0.10579114  0.22184032  0.06115150     0.63800
H340        H  0.16265858  0.17073342  0.03602105     0.08200
F341        F  0.12811564  0.02875768  0.08453602    -0.19300
F342        F  0.19677982  0.01481457  0.09113242    -0.15500
F343        F  0.15395525  0.97202495  0.06054153    -0.19000
F344        F  0.22252897  0.16751450  0.47534632    -0.22400
F345        F  0.18465351  0.14056546  0.43115637    -0.23900
F346        F  0.25297736  0.12135934  0.43915337    -0.17800
F347        F  0.12434038  0.19539204  0.08577859    -0.20300
F348        F  0.06820641  0.23439898  0.07627705    -0.21500
F349        F  0.13255682  0.25542698  0.05700333    -0.18700
F350        F  0.04840551  0.09381685  0.43767543    -0.18800
F351        F  0.08315691  0.05862660  0.47976276    -0.22600
F352        F  0.11923732  0.08493103  0.43359155    -0.24200
C353        C  0.36306217  0.95735695  0.36718225    -0.11000
C354        C  0.35010560  0.99509805  0.38211723     0.11600
C355        C  0.36975858  0.03240342  0.37132344    -0.02800
C356        C  0.40069558  0.03083389  0.34459181    -0.05500
C357        C  0.41458064  0.99302614  0.32958917    -0.16300
C358        C  0.39559764  0.95527388  0.34153391     0.02600
C359        C  0.32125957  0.99330436  0.41306382     0.12500
C360        C  0.35993008  0.07339549  0.38932259     0.63200
H361        H  0.41554752  0.05952824  0.33628963     0.12600
C362        C  0.40991690  0.91275823  0.32862065     0.55300
H363        H  0.34849925  0.92916379  0.37709016     0.08400
C364        C  0.27663259  0.99062541  0.41064604    -0.05400
C365        C  0.25262134  0.98703222  0.44180349    -0.06200
C366        C  0.27122646  0.98327583  0.47592589    -0.15800
C367        C  0.31796080  0.98095211  0.47666546    -0.01300
C368        C  0.34063709  0.98986632  0.44557497    -0.08900
C369        C  0.25456547  0.99165341  0.37524420     0.65400
H370        H  0.21822553  0.98804080  0.43962417     0.10800
C371        C  0.34952234  0.96674549  0.50526630     0.63800
H372        H  0.37535227  0.99083371  0.44598951     0.08200
F373        F  0.38685044  0.88088813  0.34407818    -0.19300
F374        F  0.45252014  0.90620318  0.33678515    -0.15500
F375        F  0.40424415  0.91028160  0.29278119    -0.19000
F376        F  0.37510339  0.07189822  0.42328853    -0.22400
F377        F  0.31635843  0.08073805  0.39009836    -0.23900
F378        F  0.37893674  0.10666258  0.37226423    -0.17800
F379        F  0.37713974  0.93708909  0.49143519    -0.20300
F380        F  0.33090591  0.94885789  0.03876311    -0.21500
F381        F  0.37369051  0.00037352  0.51525570    -0.18700
F382        F  0.21048696  0.99084248  0.37854500    -0.18800
F383        F  0.26726255  0.95748049  0.35596362    -0.22600
F384        F  0.26534848  0.02739563  0.35699922    -0.24200
C385        C  0.28352006  0.96165596  0.10476116    -0.11000
C386        C  0.31097682  0.99548998  0.10576612     0.11600
C387        C  0.31036830  0.02510735  0.07860525    -0.02800
C388        C  0.28341980  0.01846368  0.05012438    -0.05500
C389        C  0.25716376  0.98257508  0.04635620    -0.16300
C390        C  0.25528193  0.95450699  0.07661980     0.02600
C391        C  0.34466133  0.99577392  0.13274099     0.12500
C392        C  0.34045766  0.06214924  0.07835948     0.63200
H393        H  0.28551580  0.04046320  0.02866251     0.12600
C394        C  0.22620291  0.91756629  0.08484108     0.55300
H395        H  0.28481981  0.93978635  0.12659371     0.08400
C396        C  0.33884167  0.01418034  0.16589345    -0.05400
C397        C  0.37435114  0.01659787  0.18829590    -0.06200
C398        C  0.41409221  0.99886088  0.17918439    -0.15800
C399        C  0.41882252  0.97790944  0.14680986    -0.01300
C400        C  0.38388246  0.97729095  0.12394658    -0.08900
C401        C  0.29508928  0.02939202  0.17789282     0.65400
H402        H  0.37100275  0.03112792  0.21368578     0.10800
C403        C  0.46047126  0.95688061  0.13591461     0.63800
H404        H  0.38681805  0.96248843  0.09863409     0.08200
F405        F  0.20507964  0.92504559  0.11616786    -0.19300
F406        F  0.25100005  0.88203286  0.08920767    -0.15500
F407        F  0.19538215  0.90891612  0.06102589    -0.19000
F408        F  0.38243276  0.04843706  0.07683334    -0.22400
F409        F  0.33477894  0.08522172  0.10838290    -0.23900
F410        F  0.33344979  0.08832489  0.04990288    -0.17800
F411        F  0.46908451  0.92343615  0.15782866    -0.20300
F412        F  0.49364509  0.98469833  0.13757801    -0.21500
F413        F  0.45879605  0.94222468  0.10194033    -0.18700
F414        F  0.29657026  0.04678361  0.21091035    -0.18800
F415        F  0.26725623  0.99626244  0.17921063    -0.22600
F416        F  0.27911508  0.05904566  0.15489738    -0.24200
C417        C  0.23481719  0.98178818  0.00956537    -0.01600
O418        O  0.45639702  0.03222263  0.72007049    -0.72100
O419        O  0.54969840  0.03708469  0.79296607    -0.73100
O420        O  0.54636366  0.04269293  0.71857361    -0.61700
O421        O  0.45893337  0.02859490  0.79403244    -0.70100
O422        O  0.46561953  0.96033585  0.79193268    -0.69600
O423        O  0.55534621  0.97432663  0.71653009    -0.60900
O424        O  0.55637177  0.96878045  0.79048219    -0.73400
O425        O  0.46562410  0.96385394  0.71768697    -0.72200
Cu426      Cu  0.50258874  0.03753254  0.75654911     1.04600
Cu427      Cu  0.51103374  0.96447004  0.75410516     1.04300
C428        C  0.44672398  0.99692577  0.70724895     0.94100
C429        C  0.56793495  0.00329118  0.80328930     0.93300
C430        C  0.56465986  0.01085416  0.70547378     0.85400
C431        C  0.44754576  0.99263393  0.80478040     0.91700
C432        C  0.78095095  0.01149913  0.50524801    -0.01600
C433        C  0.02382104  0.22952811  0.49614265    -0.01600
O434        O  0.03957852  0.45261806  0.78007823    -0.72100
O435        O  0.03344257  0.54726137  0.70984692    -0.73100
O436        O  0.03540388  0.54050430  0.78377270    -0.61700
O437        O  0.03857712  0.45814374  0.70528554    -0.70100
O438        O  0.96771022  0.45583801  0.70540802    -0.69600
O439        O  0.96485182  0.53730706  0.78553921    -0.60900
O440        O  0.96265388  0.54427682  0.71111093    -0.73400
O441        O  0.96885306  0.44899643  0.78023372    -0.72200
Cu442      Cu  0.03918070  0.49963580  0.74461947     1.04600
Cu443      Cu  0.96354846  0.49643197  0.74556484     1.04300
C444        C  0.00507131  0.43623127  0.79156467     0.94100
C445        C  0.99696502  0.56125352  0.69999808     0.93300
C446        C  0.99989321  0.55186399  0.79732675     0.85400
C447        C  0.00377688  0.44417273  0.69276644     0.91700
C448        C  0.99472426  0.76966068  0.49644511    -0.01600
C449        C  0.99584976  0.71694361  0.89971715    -0.11000
C450        C  0.99176917  0.67483056  0.90783567     0.11600
C451        C  0.98488030  0.66251809  0.94277921    -0.02800
C452        C  0.98468193  0.69299800  0.96886850    -0.05500
C453        C  0.99069847  0.73634960  0.96202938    -0.16300
C454        C  0.99134952  0.74836600  0.92519224     0.02600
C455        C  0.99327103  0.64418283  0.87889003     0.12500
C456        C  0.97775834  0.61704771  0.95254294     0.63200
H457        H  0.97891601  0.68188947  0.99502180     0.12600
C458        C  0.98268315  0.79229454  0.91065185     0.55300
H459        H  0.00025957  0.72490149  0.87233202     0.08400
C460        C  0.95841374  0.63827273  0.85597593    -0.05400
C461        C  0.96204523  0.60777505  0.82987162    -0.06200
C462        C  0.99902177  0.58288278  0.82617775    -0.15800
C463        C  0.03357311  0.58843678  0.84985470    -0.01300
C464        C  0.03027312  0.61980886  0.87519706    -0.08900
C465        C  0.91746861  0.66385359  0.85915952     0.65400
H466        H  0.93594220  0.60349076  0.81177917     0.10800
C467        C  0.07330424  0.56085195  0.84963596     0.63800
H468        H  0.05656594  0.62535633  0.89286714     0.08200
F469        F  0.94103256  0.80388321  0.91797296    -0.19300
F470        F  0.98697501  0.79425240  0.87452424    -0.15500
F471        F  0.01022336  0.82130403  0.92362545    -0.19000
F472        F  0.01454865  0.59415969  0.94621923    -0.22400
F473        F  0.94471862  0.60111298  0.93299218    -0.23900
F474        F  0.96718714  0.61194441  0.98750859    -0.17800
F475        F  0.09853902  0.56705183  0.87883013    -0.20300
F476        F  0.09778965  0.56942494  0.82024648    -0.21500
F477        F  0.06163933  0.51950411  0.84977526    -0.18700
F478        F  0.88644645  0.65079270  0.83606440    -0.18800
F479        F  0.92568762  0.70517768  0.85187647    -0.22600
F480        F  0.90105272  0.66035753  0.89274266    -0.24200
C481        C  0.02686526  0.68722824  0.56941430    -0.11000
C482        C  0.99227900  0.68963131  0.59238327     0.11600
C483        C  0.96191617  0.72178872  0.58800735    -0.02800
C484        C  0.96429916  0.74741170  0.55785126    -0.05500
C485        C  0.99709472  0.74345800  0.53203789    -0.16300
C486        C  0.03163609  0.71443988  0.54043750     0.02600
C487        C  0.98982314  0.65805773  0.62119588     0.12500
C488        C  0.92780703  0.72956020  0.61571925     0.63200
H489        H  0.93995075  0.77091855  0.55490081     0.12600
C490        C  0.07470153  0.71171165  0.52112833     0.55300
H491        H  0.05082767  0.66365086  0.57513971     0.08400
C492        C  0.96995162  0.61917086  0.61624203    -0.05400
C493        C  0.97088473  0.58961278  0.64362458    -0.06200
C494        C  0.99409873  0.59618250  0.67438051    -0.15800
C495        C  0.01398375  0.63512348  0.67952393    -0.01300
C496        C  0.01114285  0.66566738  0.65277210    -0.08900
C497        C  0.95048943  0.60781695  0.58129951     0.65400
H498        H  0.95509634  0.56011554  0.64050561     0.10800
C499        C  0.03718537  0.64471106  0.71332534     0.63800
H500        H  0.02661149  0.69539185  0.65582669     0.08200
F501        F  0.09930268  0.67823723  0.53253041    -0.19300
F502        F  0.09827261  0.74686384  0.52758688    -0.15500
F503        F  0.06985391  0.70678641  0.48560143    -0.19000
F504        F  0.94725878  0.73942897  0.64699638    -0.22400
F505        F  0.90333681  0.69444111  0.62074389    -0.23900
F506        F  0.90068434  0.76210406  0.60653584    -0.17800
F507        F  0.07325143  0.61979716  0.71634434    -0.20300
F508        F  0.01044333  0.63746905  0.74166330    -0.21500
F509        F  0.04994646  0.68578914  0.71444571    -0.18700
F510        F  0.93160185  0.56905584  0.58240321    -0.18800
F511        F  0.98231714  0.60694492  0.55610884    -0.22600
F512        F  0.91966325  0.63670658  0.57163418    -0.24200
C513        C  0.98702566  0.33882761  0.84784216    -0.11000
C514        C  0.01235069  0.34776749  0.87704510     0.11600
C515        C  0.03667762  0.38465435  0.87724676    -0.02800
C516        C  0.03371858  0.41215339  0.84847601    -0.05500
C517        C  0.00726045  0.40411672  0.81975939    -0.16300
C518        C  0.98389672  0.36651755  0.81904236     0.02600
C519        C  0.01475037  0.31679455  0.90626215     0.12500
C520        C  0.06565928  0.39493996  0.90773269     0.63200
H521        H  0.05183514  0.44060265  0.84835932     0.12600
C522        C  0.95712876  0.35488319  0.78759202     0.55300
H523        H  0.96966025  0.30986035  0.84787898     0.08400
C524        C  0.98383926  0.31474830  0.93288149    -0.05400
C525        C  0.98968169  0.28584428  0.96020470    -0.06200
C526        C  0.02514447  0.25750439  0.96277004    -0.15800
C527        C  0.05492284  0.25793120  0.93306141    -0.01300
C528        C  0.04858904  0.28835121  0.90632752    -0.08900
C529        C  0.94444535  0.34284251  0.93231905     0.65400
H530        H  0.96521837  0.28469778  0.98019150     0.10800
C531        C  0.09092784  0.22658950  0.92468923     0.63800
H532        H  0.06984681  0.29019041  0.88393592     0.08200
F533        F  0.92214853  0.38127896  0.78491689    -0.19300
F534        F  0.94221771  0.31456858  0.79027228    -0.15500
F535        F  0.98152147  0.35782849  0.75734963    -0.19000
F536        F  0.09738117  0.36493999  0.91089716    -0.22400
F537        F  0.04210501  0.39639060  0.93841771    -0.23900
F538        F  0.08521199  0.43306093  0.90322032    -0.17800
F539        F  0.07334620  0.18959315  0.91414042    -0.20300
F540        F  0.11873697  0.22020270  0.95200193    -0.21500
F541        F  0.11656542  0.23976730  0.89711611    -0.18700
F542        F  0.91917033  0.33749224  0.96187567    -0.18800
F543        F  0.91992630  0.33399029  0.90332713    -0.22600
F544        F  0.95642341  0.38407044  0.93073114    -0.24200
C545        C  0.04788344  0.32545780  0.55729670    -0.11000
C546        C  0.01328959  0.32405203  0.58043385     0.11600
C547        C  0.97928876  0.29712186  0.57338816    -0.02800
C548        C  0.98322509  0.26942858  0.54519624    -0.05500
C549        C  0.02104434  0.26524596  0.52460989    -0.16300
C550        C  0.05166030  0.29842975  0.52838532     0.02600
C551        C  0.01157178  0.35434598  0.60971256     0.12500
C552        C  0.93864361  0.29800006  0.59541513     0.63200
H553        H  0.95579355  0.25076787  0.53952259     0.12600
C554        C  0.08519996  0.31032347  0.50105372     0.55300
H555        H  0.07130335  0.34947107  0.56152165     0.08400
C556        C  0.03064040  0.34588123  0.64265466    -0.05400
C557        C  0.02692826  0.37583240  0.66930651    -0.06200
C558        C  0.00559305  0.41391758  0.66365597    -0.15800
C559        C  0.98846590  0.42310905  0.63011833    -0.01300
C560        C  0.99149452  0.39290925  0.60371569    -0.08900
C561        C  0.05554670  0.30580837  0.64922749     0.65400
H562        H  0.04085055  0.36984048  0.69482410     0.10800
C563        C  0.96914754  0.46543666  0.62181656     0.63800
H564        H  0.97836486  0.39918468  0.57796008     0.08200
F565        F  0.11549677  0.33698691  0.51436145    -0.19300
F566        F  0.06532768  0.33084648  0.47376979    -0.15500
F567        F  0.11029904  0.27647797  0.99421957    -0.19000
F568        F  0.91872002  0.33634501  0.59191609    -0.22400
F569        F  0.94829458  0.29113907  0.63031140    -0.23900
F570        F  0.91000376  0.26783821  0.58537773    -0.17800
F571        F  0.95791797  0.46933739  0.58687108    -0.20300
F572        F  0.99873353  0.49580231  0.62907373    -0.21500
F573        F  0.93281890  0.47179795  0.64188421    -0.18700
F574        F  0.07100410  0.30342883  0.68313740    -0.18800
F575        F  0.08999663  0.30369854  0.62647186    -0.22600
F576        F  0.02969738  0.27185856  0.64392012    -0.24200
C577        C  0.85387477  0.91431144  0.53128323    -0.11000
C578        C  0.85256559  0.89156989  0.99460653     0.11600
C579        C  0.81890083  0.90231039  0.97186932    -0.02800
C580        C  0.79422625  0.93813606  0.97924309    -0.05500
C581        C  0.80191130  0.96566257  0.50837196    -0.16300
C582        C  0.82952329  0.95083702  0.53645493     0.02600
C583        C  0.88586355  0.85945628  0.98687112     0.12500
C584        C  0.81091118  0.87784393  0.93870788     0.63200
H585        H  0.76684523  0.94370637  0.96286721     0.12600
C586        C  0.83434331  0.97086123  0.57230496     0.55300
H587        H  0.87752096  0.90429593  0.55029933     0.08400
C588        C  0.92840806  0.87104013  0.98020767    -0.05400
C589        C  0.96077881  0.84106537  0.98342465    -0.06200
C590        C  0.95399049  0.79964769  0.49376604    -0.15800
C591        C  0.90966220  0.78658485  0.49485000    -0.01300
C592        C  0.87730580  0.81724623  0.49914224    -0.08900
C593        C  0.94193433  0.91498635  0.97046928     0.65400
H594        H  0.99253953  0.85279546  0.97942896     0.10800
C595        C  0.89411692  0.74227478  0.48843334     0.63800
H596        H  0.84471772  0.80842548  0.50487863     0.08200
F597        F  0.86281049  0.94938164  0.59369354    -0.19300
F598        F  0.79584064  0.97118730  0.59001688    -0.15500
F599        F  0.84998296  0.01021120  0.56891480    -0.19000
F600        F  0.80030627  0.83736663  0.94713090    -0.22400
F601        F  0.84740697  0.87773469  0.91810136    -0.23900
F602        F  0.77787312  0.89484195  0.91903547    -0.17800
F603        F  0.85013887  0.73925180  0.49181599    -0.20300
F604        F  0.91145267  0.71383329  0.51156205    -0.21500
F605        F  0.90377276  0.73088633  0.45451535    -0.18700
F606        F  0.96824559  0.91372855  0.94123640    -0.18800
F607        F  0.96435748  0.93179596  0.99800344    -0.22600
F608        F  0.90795069  0.94095065  0.96241939    -0.24200
C609        C  0.83704348  0.11992686  0.49141521    -0.11000
C610        C  0.88161720  0.11186340  0.99388076     0.11600
C611        C  0.89336897  0.06944650  0.99370515    -0.02800
C612        C  0.86130158  0.03960555  0.99694647    -0.05500
C613        C  0.81450307  0.04703822  0.49936607    -0.16300
C614        C  0.80371198  0.09050549  0.49263174     0.02600
C615        C  0.91371665  0.14537495  0.99562682     0.12500
C616        C  0.93913765  0.05331046  0.99047990     0.63200
H617        H  0.87217053  0.00781183  0.99678162     0.12600
C618        C  0.75877693  0.10779767  0.48533942     0.55300
H619        H  0.82985632  0.15284445  0.48971456     0.08400
C620        C  0.92513211  0.16956634  0.96640497    -0.05400
C621        C  0.95937528  0.19713828  0.96946053    -0.06200
C622        C  0.98298732  0.19906450  0.49809977    -0.15800
C623        C  0.97139058  0.17207031  0.52757527    -0.01300
C624        C  0.93506002  0.14645253  0.52456394    -0.08900
C625        C  0.90239142  0.16478851  0.93148017     0.65400
H626        H  0.96868877  0.21230064  0.94550977     0.10800
C627        C  0.99633511  0.16623389  0.56195799     0.63800
H628        H  0.92450007  0.12730267  0.54634783     0.08200
F629        F  0.74621507  0.09693784  0.45204181    -0.19300
F630        F  0.75730051  0.15081029  0.48645244    -0.15500
F631        F  0.72939981  0.09410460  0.50960022    -0.19000
F632        F  0.95028146  0.03278713  0.02117250    -0.22400
F633        F  0.96875941  0.08402751  0.98400961    -0.23900
F634        F  0.94168134  0.02550150  0.96309428    -0.17800
F635        F  0.97925422  0.13531182  0.58315847    -0.20300
F636        F  0.99550758  0.20151319  0.58190426    -0.21500
F637        F  0.03777209  0.15392725  0.55552031    -0.18700
F638        F  0.91924443  0.19031267  0.90557559    -0.18800
F639        F  0.85960888  0.17501823  0.93512347    -0.22600
F640        F  0.90608854  0.12410280  0.92035836    -0.24200
C641        C  0.64632753  0.97506156  0.87713944    -0.11000
C642        C  0.66624842  0.01326408  0.88210331     0.11600
C643        C  0.65706624  0.04693480  0.85915946    -0.02800
C644        C  0.62492015  0.04213759  0.83382300    -0.05500
C645        C  0.60290733  0.00446349  0.82988150    -0.16300
C646        C  0.61489281  0.96966041  0.85134210     0.02600
C647        C  0.69564091  0.01690428  0.91242944     0.12500
C648        C  0.68120824  0.08759265  0.86136274     0.63200
H649        H  0.61688907  0.06801515  0.81665196     0.12600
C650        C  0.59459123  0.92707217  0.84804917     0.55300
H651        H  0.65526436  0.94952822  0.89441164     0.08400
C652        C  0.68015030  0.02329548  0.94658411    -0.05400
C653        C  0.70935580  0.02399379  0.97441472    -0.06200
C654        C  0.75433385  0.01793770  0.97023638    -0.15800
C655        C  0.76960005  0.01574764  0.93413963    -0.01300
C656        C  0.73946363  0.01307299  0.90676064    -0.08900
C657        C  0.63248330  0.02891574  0.95363385     0.65400
H658        H  0.69593712  0.03060279  0.99966973     0.10800
C659        C  0.81644340  0.01858836  0.92241051     0.63800
H660        H  0.74976785  0.00888712  0.87990114     0.08200
F661        F  0.60952382  0.89923999  0.87317984    -0.19300
F662        F  0.60419631  0.91052411  0.81559273    -0.15500
F663        F  0.55074079  0.93041298  0.85219938    -0.19000
F664        F  0.72423186  0.08046572  0.85523031    -0.22400
F665        F  0.67606923  0.10464827  0.89423366    -0.23900
F666        F  0.66696490  0.11642781  0.83678556    -0.17800
F667        F  0.82157906  0.01103605  0.88695448    -0.20300
F668        F  0.84207891  0.99004364  0.93938073    -0.21500
F669        F  0.83128246  0.05825046  0.92793393    -0.18700
F670        F  0.62390128  0.03797409  0.98837050    -0.18800
F671        F  0.61122649  0.99279414  0.94555211    -0.22600
F672        F  0.61634597  0.06118612  0.93331305    -0.24200
C673        C  0.72166165  0.04605642  0.59338096    -0.11000
C674        C  0.69125164  0.01492457  0.59539896     0.11600
C675        C  0.69074814  0.98363884  0.57011917    -0.02800
C676        C  0.72291416  0.98334814  0.54445865    -0.05500
C677        C  0.75364864  0.01570816  0.54019073    -0.16300
C678        C  0.75448814  0.04683299  0.56785604     0.02600
C679        C  0.66043470  0.01580805  0.62489742     0.12500
C680        C  0.65433316  0.95262090  0.56869325     0.63200
H681        H  0.72184850  0.95906504  0.52509025     0.12600
C682        C  0.78638323  0.08169433  0.57558369     0.55300
H683        H  0.72020581  0.06985903  0.61335177     0.08400
C684        C  0.66776367  0.99296078  0.65614843    -0.05400
C685        C  0.63504990  0.99150014  0.68139458    -0.06200
C686        C  0.59777986  0.01583165  0.67802041    -0.15800
C687        C  0.59351985  0.04361309  0.64899015    -0.01300
C688        C  0.62428781  0.04160097  0.62202499    -0.08900
C689        C  0.71073333  0.97233176  0.66356188     0.65400
H690        H  0.63896776  0.97235775  0.70469226     0.10800
C691        C  0.55750160  0.07556322  0.64640247     0.63800
H692        H  0.62086679  0.06062930  0.59861572     0.08200
F693        F  0.79576826  0.08130835  0.61106510    -0.19300
F694        F  0.76765865  0.11972509  0.56763651    -0.15500
F695        F  0.82525790  0.07961408  0.55936261    -0.19000
F696        F  0.61614875  0.97390963  0.56382931    -0.22400
F697        F  0.65190607  0.92992149  0.59953868    -0.23900
F698        F  0.65927866  0.92489840  0.54140382    -0.17800
F699        F  0.56048682  0.10333070  0.67371032    -0.20300
F700        F  0.51830885  0.05624080  0.64790493    -0.21500
F701        F  0.55940355  0.09825217  0.61541188    -0.18700
F702        F  0.71121866  0.95251101  0.69593046    -0.18800
F703        F  0.74215575  0.00230156  0.66353169    -0.22600
F704        F  0.72048949  0.94321841  0.63831999    -0.24200
C705        C  0.18443026  0.87331675  0.48945152    -0.11000
C706        C  0.14036765  0.88234851  0.98566390     0.11600
C707        C  0.12949051  0.92483929  0.98284780    -0.02800
C708        C  0.16064397  0.95456018  0.99011466    -0.05500
C709        C  0.20566768  0.94642863  0.49748654    -0.16300
C710        C  0.21738935  0.90301513  0.49242294     0.02600
C711        C  0.10716725  0.84943605  0.98844655     0.12500
C712        C  0.08525412  0.94094002  0.97286895     0.63200
H713        H  0.15012370  0.98629845  0.98683511     0.12600
C714        C  0.26289493  0.88585278  0.49057322     0.55300
H715        H  0.19165381  0.84042595  0.49130808     0.08400
C716        C  0.10076825  0.81861162  0.96304475    -0.05400
C717        C  0.06704642  0.79021542  0.96789536    -0.06200
C718        C  0.03738781  0.79633815  0.49665969    -0.15800
C719        C  0.04832751  0.82534358  0.52425262    -0.01300
C720        C  0.08330911  0.85215256  0.51911802    -0.08900
C721        C  0.12804226  0.81702035  0.93001398     0.65400
H722        H  0.06403568  0.76611990  0.94878084     0.10800
C723        C  0.02581203  0.82878603  0.55994162     0.63800
H724        H  0.09179312  0.87450251  0.53891149     0.08200
F725        F  0.28409271  0.90184611  0.46179731    -0.19300
F726        F  0.26408413  0.84302578  0.48702783    -0.15500
F727        F  0.28447959  0.89446940  0.52064607    -0.19000
F728        F  0.06695987  0.96066083  0.00137603    -0.22400
F729        F  0.05816537  0.91000340  0.96196597    -0.23900
F730        F  0.08890592  0.96940806  0.94561268    -0.17800
F731        F  0.03510966  0.79414079  0.58023508    -0.20300
F732        F  0.98227737  0.83365741  0.55663945    -0.21500
F733        F  0.03943044  0.86281462  0.57872710    -0.18700
F734        F  0.11304663  0.78824956  0.90638053    -0.18800
F735        F  0.16961589  0.80613226  0.93834067    -0.22600
F736        F  0.12772750  0.85556529  0.91360199    -0.24200
C737        C  0.15327578  0.07406976  0.52678081    -0.11000
C738        C  0.15965702  0.10068553  0.00150622     0.11600
C739        C  0.19671961  0.09511445  0.98116428    -0.02800
C740        C  0.22050106  0.05784734  0.98525631    -0.05500
C741        C  0.21180057  0.02725981  0.50796071    -0.16300
C742        C  0.17782216  0.03781377  0.53261001     0.02600
C743        C  0.12958669  0.13639870  0.99756936     0.12500
C744        C  0.21154089  0.12908238  0.95610275     0.62600
H745        H  0.24939552  0.05521416  0.97003106     0.12600
C746        C  0.16636098  0.01363034  0.56591596     0.55300
H747        H  0.12563009  0.08103760  0.54294161     0.08400
C748        C  0.09161769  0.13235841  0.97852789    -0.05400
C749        C  0.06111937  0.16446168  0.98015972    -0.06200
C750        C  0.06389496  0.19889462  0.49969575    -0.15800
C751        C  0.10070792  0.20016383  0.52310568    -0.01300
C752        C  0.13524828  0.17224084  0.51709334    -0.08900
C753        C  0.08262582  0.09350303  0.95730867     0.65400
H754        H  0.03389120  0.16174788  0.96320085     0.10800
C755        C  0.10524717  0.22348216  0.55781526     0.63800
H756        H  0.16408575  0.17441872  0.53264093     0.08200
F757        F  0.13174592  0.03071373  0.58361812    -0.19300
F758        F  0.19991466  0.01421899  0.58916191    -0.15500
F759        F  0.15503379  0.97379369  0.55827017    -0.19000
F760        F  0.21896294  0.16501899  0.97464698    -0.22400
F761        F  0.18059057  0.13727331  0.93118610    -0.23900
F762        F  0.24893891  0.11814832  0.93883498    -0.17800
F763        F  0.12678349  0.19890042  0.58216852    -0.20300
F764        F  0.06710874  0.23285093  0.57370264    -0.21500
F765        F  0.12896138  0.25907110  0.55302902    -0.18700
F766        F  0.04494534  0.09697955  0.93856451    -0.18800
F767        F  0.07916248  0.05954870  0.97959532    -0.22600
F768        F  0.11537702  0.08619781  0.93370424    -0.24200
C769        C  0.36178095  0.95374426  0.86967210    -0.11000
C770        C  0.34901197  0.99128029  0.88504290     0.11600
C771        C  0.36852685  0.02872732  0.87439873    -0.02800
C772        C  0.39983737  0.02737319  0.84792692    -0.05500
C773        C  0.41325925  0.98978679  0.83228303    -0.16300
C774        C  0.39345347  0.95205682  0.84329795     0.02600
C775        C  0.31990647  0.98930442  0.91584502     0.12500
C776        C  0.35724469  0.06981859  0.89169951     0.63200
H777        H  0.41488571  0.05609590  0.83995260     0.12600
C778        C  0.40517475  0.91002386  0.82790206     0.55300
H779        H  0.34724817  0.92543266  0.87935376     0.08400
C780        C  0.27539083  0.98549149  0.91319300    -0.05400
C781        C  0.25103276  0.98331526  0.94422585    -0.06200
C782        C  0.26922465  0.98106282  0.97853372    -0.15800
C783        C  0.31598724  0.97868168  0.97963775    -0.01300
C784        C  0.33896349  0.98683827  0.94854223    -0.08900
C785        C  0.25374832  0.98370120  0.87769812     0.65400
H786        H  0.21667070  0.98410626  0.94173815     0.10800
C787        C  0.34742978  0.96453913  0.00840175     0.63800
H788        H  0.37367635  0.98785431  0.94916567     0.08200
F789        F  0.38055770  0.87830935  0.84186741    -0.19300
F790        F  0.44750023  0.90054432  0.83502001    -0.15500
F791        F  0.39864621  0.91081556  0.79206910    -0.19000
F792        F  0.36936328  0.06864946  0.92649049    -0.22400
F793        F  0.31369302  0.07702673  0.88980962    -0.23900
F794        F  0.37766279  0.10300721  0.87569490    -0.17800
F795        F  0.37309466  0.93288447  0.99524839    -0.20300
F796        F  0.33294873  0.94852117  0.53461875    -0.21500
F797        F  0.37357603  0.99741892  0.01675843    -0.18700
F798        F  0.20979509  0.98037939  0.88078952    -0.18800
F799        F  0.26861620  0.94943898  0.85956352    -0.22600
F800        F  0.26261421  0.01924217  0.85848516    -0.24200
C801        C  0.28524288  0.95851536  0.60198355    -0.11000
C802        C  0.31263895  0.99222483  0.60445092     0.11600
C803        C  0.31278706  0.02284709  0.57807324    -0.02800
C804        C  0.28615020  0.01766067  0.54909936    -0.05500
C805        C  0.25950856  0.98230275  0.54410317    -0.16300
C806        C  0.25704970  0.95300582  0.57353902     0.02600
C807        C  0.34509224  0.99173717  0.63247681     0.12500
C808        C  0.34331376  0.05948910  0.57924011     0.63200
H809        H  0.28862518  0.04051811  0.52830708     0.12600
C810        C  0.22698949  0.91653640  0.58092309     0.55300
H811        H  0.28606555  0.93576283  0.62318639     0.08400
C812        C  0.33813130  0.01019273  0.66550182    -0.05400
C813        C  0.37272899  0.01232070  0.68883314    -0.06200
C814        C  0.41255147  0.99409561  0.68088466    -0.15800
C815        C  0.41831191  0.97277753  0.64876663    -0.01300
C816        C  0.38435550  0.97256511  0.62488109    -0.08900
C817        C  0.29409807  0.02565698  0.67653402     0.65400
H818        H  0.36859857  0.02710822  0.71404222     0.10800
C819        C  0.46011049  0.95110888  0.63917190     0.63800
H820        H  0.38815879  0.95767002  0.59967767     0.08200
F821        F  0.20695817  0.92293773  0.61290256    -0.19300
F822        F  0.25071485  0.88010391  0.58349322    -0.15500
F823        F  0.19507800  0.91016252  0.55756447    -0.19000
F824        F  0.38515111  0.04525632  0.57867785    -0.22400
F825        F  0.33671651  0.08199004  0.60944885    -0.23900
F826        F  0.33781624  0.08632672  0.55100564    -0.17800
F827        F  0.46738699  0.91783405  0.66159982    -0.20300
F828        F  0.49357675  0.97859457  0.64148908    -0.21500
F829        F  0.45956388  0.93597201  0.60531406    -0.18700
F830        F  0.29458130  0.04284027  0.70966755    -0.18800
F831        F  0.26603272  0.99270345  0.67707473    -0.22600
F832        F  0.27908389  0.05555612  0.65334975    -0.24200
loop_ 
_geom_bond_atom_site_label_1 
_geom_bond_atom_site_label_2 
_geom_bond_distance 
_geom_bond_site_symmetry_2 
_ccdc_geom_bond_type 
C1          C366   1.597       .  S
C1          C709   1.596       .  S
C1          C741   1.617   1_565  S
C1          C805   1.572       .  S
O2          Cu10   2.019       .  S
O2           C12   1.279       .  A
O3          Cu10   2.021       .  S
O3           C13   1.281       .  A
O4          Cu10   2.000       .  S
O4           C14   1.275       .  A
O5          Cu10   1.992       .  S
O5           C15   1.277   1_545  A
O6          Cu11   2.024       .  S
O6           C15   1.278       .  A
O7          Cu11   2.018       .  S
O7           C14   1.280   1_565  A
O8          Cu11   1.989       .  S
O8           C13   1.273   1_565  A
O9          Cu11   1.993       .  S
O9           C12   1.274   1_565  A
Cu10        Cu11   2.366   1_545  S
C12         C398   1.475   1_545  S
C13         C229   1.488       .  S
C14         C270   1.479       .  S
C15         C357   1.500       .  S
C16         C165   1.614   1_545  S
C16         C197   1.565   1_554  S
C16         C261   1.586       .  S
C16         C654   1.603   1_554  S
C17         C133   1.591   1_556  S
C17         C206   1.615   1_456  S
C17         C334   1.586   1_556  S
C17         C526   1.606       .  S
O18         Cu26   2.026       .  S
O18          C28   1.281       .  A
O19         Cu26   2.030       .  S
O19          C29   1.280   1_455  A
O20         Cu26   1.995       .  S
O20          C30   1.274   1_455  A
O21         Cu26   2.010       .  S
O21          C31   1.276   1_455  A
O22         Cu27   2.029       .  S
O22          C31   1.280       .  A
O23         Cu27   2.030       .  S
O23          C30   1.282       .  A
O24         Cu27   2.009       .  S
O24          C29   1.277       .  A
O25         Cu27   2.008       .  S
O25          C28   1.276   1_655  A
Cu26        Cu27   2.369   1_455  S
C28         C101   1.485       .  S
C29          C78   1.485       .  S
C30          C46   1.492       .  S
C31         C142   1.483   1_655  S
C32          C69   1.592   1_556  S
C32         C174   1.595       .  S
C32         C302   1.594   1_655  S
C32         C453   1.597       .  S
C33          C34   1.394       .  A
C33          C38   1.416       .  A
C33          H43   1.082       .  S
C34          C39   1.490       .  S
C34          C35   1.405       .  A
C35          C40   1.523       .  S
C35          C36   1.403       .  A
C36          C37   1.429       .  A
C36          H41   1.072       .  S
C37         C448   1.597       .  S
C37          C38   1.455       .  A
C38          C42   1.535       .  S
C39          C44   1.417       .  A
C39          C48   1.399   1_655  A
C40          F56   1.382   1_655  S
C40          F57   1.383       .  S
C40          F58   1.382       .  S
C42          F53   1.380       .  S
C42          F54   1.385       .  S
C42          F55   1.373   1_655  S
C44          C49   1.520       .  S
C44          C45   1.409       .  A
C45          C46   1.407       .  A
C45          H50   1.082       .  S
C46          C47   1.425   1_655  A
C47          C51   1.521       .  S
C47          C48   1.407       .  A
C48          H52   1.083       .  S
C49          F62   1.384       .  S
C49          F63   1.382       .  S
C49          F64   1.383       .  S
C51          F59   1.385       .  S
C51          F60   1.382       .  S
C51          F61   1.383       .  S
C65          C66   1.392   1_455  A
C65          C70   1.412       .  A
C65          H75   1.083       .  S
C66          C71   1.492       .  S
C66          C67   1.407       .  A
C67          C72   1.519       .  S
C67          C68   1.411       .  A
C68          C69   1.424       .  A
C68          H73   1.074       .  S
C69          C70   1.456   1_655  A
C70          C74   1.536       .  S
C71          C76   1.417       .  A
C71          C80   1.405   1_655  A
C72          F88   1.383       .  S
C72          F89   1.381       .  S
C72          F90   1.385       .  S
C74          F85   1.385       .  S
C74          F86   1.380       .  S
C74          F87   1.376   1_554  S
C76          C81   1.518       .  S
C76          C77   1.407       .  A
C77          C78   1.402       .  A
C77          H82   1.082       .  S
C78          C79   1.419   1_655  A
C79          C83   1.518       .  S
C79          C80   1.413       .  A
C80          H84   1.083       .  S
C81          F94   1.385       .  S
C81          F95   1.380       .  S
C81          F96   1.381       .  S
C83          F91   1.382       .  S
C83          F92   1.384       .  S
C83          F93   1.385       .  S
C97          C98   1.403   1_655  A
C97         C102   1.411       .  A
C97         H107   1.083       .  S
C98         C103   1.492       .  S
C98          C99   1.417       .  A
C99         C104   1.517       .  S
C99         C100   1.406       .  A
C100        C101   1.402       .  A
C100        H105   1.081       .  S
C101        C102   1.420   1_455  A
C102        C106   1.519       .  S
C103        C108   1.403   1_455  A
C103        C112   1.394       .  A
C104        F120   1.382       .  S
C104        F121   1.382       .  S
C104        F122   1.385       .  S
C106        F117   1.382       .  S
C106        F118   1.385       .  S
C106        F119   1.383       .  S
C108        C113   1.521       .  S
C108        C109   1.403       .  A
C109        C110   1.432   1_655  A
C109        H114   1.079       .  S
C110        C433   1.606       .  S
C110        C111   1.460       .  A
C111        C115   1.534       .  S
C111        C112   1.420       .  A
C112        H116   1.082       .  S
C113        F126   1.385       .  S
C113        F127   1.382       .  S
C113        F128   1.382       .  S
C115        F123   1.379       .  S
C115        F124   1.375       .  S
C115        F125   1.385       .  S
C129        C130   1.395       .  A
C129        C134   1.416       .  A
C129        H139   1.083       .  S
C130        C135   1.489       .  S
C130        C131   1.405   1_455  A
C131        C136   1.522       .  S
C131        C132   1.405       .  A
C132        C133   1.425   1_655  A
C132        H137   1.075       .  S
C133        C134   1.449       .  A
C134        C138   1.524       .  S
C135        C140   1.416       .  A
C135        C144   1.402   1_455  A
C136        F152   1.382       .  S
C136        F153   1.382       .  S
C136        F154   1.385       .  S
C138        F149   1.385       .  S
C138        F150   1.377   1_554  S
C138        F567   1.367   1_554  S
C140        C145   1.519       .  S
C140        C141   1.410       .  A
C141        C142   1.405       .  A
C141        H146   1.083       .  S
C142        C143   1.417   1_455  A
C143        C147   1.516       .  S
C143        C144   1.408       .  A
C144        H148   1.083       .  S
C145        F158   1.384       .  S
C145        F159   1.383       .  S
C145        F160   1.382       .  S
C147        F155   1.384       .  S
C147        F156   1.382       .  S
C147        F157   1.382       .  S
F151        C554   1.369       .  S
C161        C166   1.411       .  A
C161        C578   1.390   1_554  A
C161        H171   1.083       .  S
C162        C167   1.487       .  S
C162        C163   1.407       .  A
C162        C577   1.389       .  A
C163        C168   1.520       .  S
C163        C164   1.410       .  A
C164        C581   1.429       .  A
C164        H169   1.075       .  S
C165        C166   1.459       .  A
C165        C580   1.430   1_554  A
C166        C170   1.531       .  S
C167        C172   1.404       .  A
C167        C592   1.395       .  A
C168        F184   1.381       .  S
C168        F185   1.383       .  S
C168        F186   1.385       .  S
C170        F181   1.386       .  S
C170        F182   1.374       .  S
C170        F183   1.371   1_565  S
C172        C177   1.522       .  S
C172        C173   1.399       .  A
C173        C590   1.427       .  A
C173        H178   1.073       .  S
C174        C175   1.453       .  A
C174        C589   1.426       .  A
C175        C179   1.533       .  S
C175        C176   1.419       .  A
C176        C583   1.398       .  A
C176        H180   1.082       .  S
C177        F190   1.381       .  S
C177        F191   1.381       .  S
C177        F192   1.381       .  S
C179        F187   1.385       .  S
C179        F188   1.374   1_556  S
C179        F189   1.380       .  S
C193        C198   1.412       .  A
C193        C610   1.394       .  A
C193        H203   1.082       .  S
C194        C199   1.489       .  S
C194        C195   1.410       .  A
C194        C609   1.395       .  A
C195        C200   1.522       .  S
C195        C196   1.402       .  A
C196        C613   1.422       .  A
C196        H201   1.075       .  S
C197        C198   1.454       .  A
C197        C612   1.420       .  A
C198        C202   1.534       .  S
C199        C204   1.402       .  A
C199        C624   1.392       .  A
C200        F216   1.383       .  S
C200        F217   1.381       .  S
C200        F218   1.383       .  S
C202        F213   1.380       .  S
C202        F214   1.385       .  S
C202        F215   1.373   1_556  S
C204        C209   1.524       .  S
C204        C205   1.405       .  A
C205        C622   1.434       .  A
C205        H210   1.073       .  S
C206        C207   1.462       .  A
C206        C621   1.433   1_554  A
C207        C211   1.539       .  S
C207        C208   1.412       .  A
C208        C615   1.389   1_554  A
C208        H212   1.082       .  S
C209        F222   1.385       .  S
C209        F223   1.381       .  S
C209        F224   1.383       .  S
C211        F219   1.386       .  S
C211        F220   1.372       .  S
C211        F221   1.373   1_655  S
C225        C226   1.397   1_565  A
C225        C230   1.404       .  A
C225        H235   1.084       .  S
C226        C231   1.481       .  S
C226        C227   1.414       .  A
C227        C232   1.520       .  S
C227        C228   1.406       .  A
C228        C229   1.407       .  A
C228        H233   1.083       .  S
C229        C230   1.426   1_545  A
C230        C234   1.522       .  S
C231        C236   1.403       .  A
C231        C240   1.392       .  A
C232        F248   1.382       .  S
C232        F249   1.382       .  S
C232        F250   1.385       .  S
C234        F245   1.385       .  S
C234        F246   1.383       .  S
C234        F247   1.383       .  S
C236        C241   1.525       .  S
C236        C237   1.400       .  A
C237        C238   1.428       .  A
C237        H242   1.072       .  S
C238        C432   1.598       .  S
C238        C239   1.456       .  A
C239        C243   1.534       .  S
C239        C240   1.413       .  A
C240        H244   1.083       .  S
C241        F254   1.385       .  S
C241        F255   1.382   1_545  S
C241        F256   1.382       .  S
C243        F251   1.385   1_545  S
C243        F252   1.371   1_545  S
C243        F253   1.380       .  S
C257        C258   1.389       .  A
C257        C262   1.410       .  A
C257        H267   1.086       .  S
C258        C263   1.481       .  S
C258        C259   1.403   1_545  A
C259        C264   1.521       .  S
C259        C260   1.404       .  A
C260        C261   1.427   1_565  A
C260        H265   1.081       .  S
C261        C262   1.461       .  A
C262        C266   1.536       .  S
C263        C268   1.414   1_545  A
C263        C272   1.401       .  A
C264        F280   1.383       .  S
C264        F281   1.381       .  S
C264        F282   1.384       .  S
C266        F277   1.387       .  S
C266        F278   1.382       .  S
C266        F279   1.363       .  S
C268        C273   1.520       .  S
C268        C269   1.405       .  A
C269        C270   1.404   1_565  A
C269        H274   1.083       .  S
C270        C271   1.421       .  A
C271        C275   1.520       .  S
C271        C272   1.408       .  A
C272        H276   1.083       .  S
C273        F286   1.384       .  S
C273        F287   1.383   1_565  S
C273        F288   1.381       .  S
C275        F283   1.383       .  S
C275        F284   1.379       .  S
C275        F285   1.385       .  S
C289        C294   1.417       .  A
C289        C706   1.395       .  A
C289        H299   1.081       .  S
C290        C295   1.493       .  S
C290        C291   1.408       .  A
C290        C705   1.394       .  A
C291        C296   1.519       .  S
C291        C292   1.402       .  A
C292        C709   1.426       .  A
C292        H297   1.076       .  S
C293        C417   1.598       .  S
C293        C294   1.454   1_554  A
C293        C708   1.428   1_554  A
C294        C298   1.523       .  S
C295        C300   1.408       .  A
C295        C720   1.392       .  A
C296        F312   1.383       .  S
C296        F313   1.379       .  S
C296        F314   1.384       .  S
C298        F309   1.379       .  S
C298        F310   1.385       .  S
C298        F311   1.365   1_556  S
C300        C305   1.519       .  S
C300        C301   1.410       .  A
C301        C718   1.423       .  A
C301        H306   1.074       .  S
C302        C303   1.457   1_556  A
C302        C717   1.423       .  A
C303        C307   1.534       .  S
C303        C304   1.409       .  A
C304        C711   1.391   1_554  A
C304        H308   1.083       .  S
C305        F318   1.385       .  S
C305        F319   1.381       .  S
C305        F320   1.384       .  S
C307        F315   1.380       .  S
C307        F316   1.375   1_455  S
C307        F317   1.385       .  S
C321        C326   1.405       .  A
C321        C738   1.385       .  A
C321        H331   1.083       .  S
C322        C327   1.488       .  S
C322        C323   1.403       .  A
C322        C737   1.386       .  A
C323        C328   1.519       .  S
C323        C324   1.413       .  A
C324        C741   1.432       .  A
C324        H329   1.076       .  S
C325        C417   1.615   1_545  S
C325        C326   1.456       .  A
C325        C740   1.432   1_554  A
C326        C330   1.527       .  S
C327        C332   1.403       .  A
C327        C752   1.395       .  A
C328        F344   1.383       .  S
C328        F345   1.382       .  S
C328        F346   1.384       .  S
C330        F341   1.386       .  S
C330        F342   1.378       .  S
C330        F343   1.367   1_545  S
C332        C337   1.523       .  S
C332        C333   1.403       .  A
C333        C750   1.427       .  A
C333        H338   1.076       .  S
C334        C335   1.459       .  A
C334        C749   1.427   1_554  A
C335        C339   1.535       .  S
C335        C336   1.417       .  A
C336        C743   1.397   1_554  A
C336        H340   1.085       .  S
C337        F350   1.384       .  S
C337        F351   1.382       .  S
C337        F352   1.382       .  S
C339        F347   1.387       .  S
C339        F348   1.367       .  S
C339        F349   1.380       .  S
C353        C354   1.401       .  A
C353        C358   1.410       .  A
C353        H363   1.083       .  S
C354        C359   1.484       .  S
C354        C355   1.411   1_565  A
C355        C360   1.520       .  S
C355        C356   1.404       .  A
C356        C357   1.413   1_545  A
C356        H361   1.081       .  S
C357        C358   1.427       .  A
C358        C362   1.521       .  S
C359        C364   1.403       .  A
C359        C368   1.386       .  A
C360        F376   1.382       .  S
C360        F377   1.381       .  S
C360        F378   1.385       .  S
C362        F373   1.385       .  S
C362        F374   1.384       .  S
C362        F375   1.383       .  S
C364        C369   1.520       .  S
C364        C365   1.408       .  A
C365        C366   1.432       .  A
C365        H370   1.080       .  S
C366        C367   1.463       .  A
C367        C371   1.538       .  S
C367        C368   1.408       .  A
C368        H372   1.087       .  S
C369        F382   1.384       .  S
C369        F383   1.382       .  S
C369        F384   1.382   1_565  S
C371        F379   1.387       .  S
C371        F381   1.383   1_565  S
C371        F796   1.362       .  S
F380        C787   1.361       .  S
C385        C386   1.394       .  A
C385        C390   1.415       .  A
C385        H395   1.086       .  S
C386        C391   1.476       .  S
C386        C387   1.401   1_565  A
C387        C392   1.525       .  S
C387        C388   1.397       .  A
C388        C389   1.432   1_545  A
C388        H393   1.079       .  S
C389        C417   1.571       .  S
C389        C390   1.460       .  A
C390        C394   1.532       .  S
C391        C396   1.412   1_565  A
C391        C400   1.399       .  A
C392        F408   1.382       .  S
C392        F409   1.381       .  S
C392        F410   1.385       .  S
C394        F405   1.385       .  S
C394        F406   1.384       .  S
C394        F407   1.360       .  S
C396        C401   1.519       .  S
C396        C397   1.408       .  A
C397        C398   1.406   1_545  A
C397        H402   1.084       .  S
C398        C399   1.419       .  A
C399        C403   1.520       .  S
C399        C400   1.402       .  A
C400        H404   1.084       .  S
C401        F414   1.384       .  S
C401        F415   1.383   1_545  S
C401        F416   1.381       .  S
C403        F411   1.381       .  S
C403        F412   1.379       .  S
C403        F413   1.385       .  S
C417        C782   1.597   1_554  S
O418       Cu426   2.020       .  S
O418        C428   1.280   1_545  A
O419       Cu426   2.030       .  S
O419        C429   1.282       .  A
O420       Cu426   1.996       .  S
O420        C430   1.274       .  A
O421       Cu426   1.994       .  S
O421        C431   1.277   1_545  A
O422       Cu427   2.025       .  S
O422        C431   1.279       .  A
O423       Cu427   2.015       .  S
O423        C430   1.280   1_565  A
O424       Cu427   1.995       .  S
O424        C429   1.273   1_565  A
O425       Cu427   1.992       .  S
O425        C428   1.273       .  A
Cu426      Cu427   2.365   1_545  S
C428        C814   1.475       .  S
C429        C645   1.496       .  S
C430        C686   1.479       .  S
C431        C773   1.500       .  S
C432        C581   1.611   1_545  S
C432        C613   1.573       .  S
C432        C677   1.586       .  S
C433        C549   1.590       .  S
C433        C622   1.618   1_455  S
C433        C750   1.592       .  S
O434       Cu442   2.020       .  S
O434        C444   1.280       .  A
O435       Cu442   2.024       .  S
O435        C445   1.279   1_455  A
O436       Cu442   2.002       .  S
O436        C446   1.275   1_455  A
O437       Cu442   2.018       .  S
O437        C447   1.278       .  A
O438       Cu443   2.025       .  S
O438        C447   1.279   1_655  A
O439       Cu443   2.024       .  S
O439        C446   1.281       .  A
O440       Cu443   2.015       .  S
O440        C445   1.278       .  A
O441       Cu443   2.016       .  S
O441        C444   1.277   1_655  A
Cu442      Cu443   2.369   1_455  S
C444        C517   1.486       .  S
C445        C494   1.484       .  S
C446        C462   1.493       .  S
C447        C558   1.484       .  S
C448        C485   1.593       .  S
C448        C590   1.594       .  S
C448        C718   1.593   1_655  S
C449        C450   1.393       .  A
C449        C454   1.414       .  A
C449        H459   1.082   1_655  S
C450        C455   1.488       .  S
C450        C451   1.404       .  A
C451        C456   1.524       .  S
C451        C452   1.404       .  A
C452        C453   1.430       .  A
C452        H457   1.072       .  S
C453        C454   1.454       .  A
C454        C458   1.535       .  S
C455        C460   1.416       .  A
C455        C464   1.399   1_655  A
C456        F472   1.382   1_655  S
C456        F473   1.382       .  S
C456        F474   1.382       .  S
C458        F469   1.380       .  S
C458        F470   1.385       .  S
C458        F471   1.373   1_655  S
C460        C465   1.521       .  S
C460        C461   1.408       .  A
C461        C462   1.408       .  A
C461        H466   1.082       .  S
C462        C463   1.425   1_655  A
C463        C467   1.520       .  S
C463        C464   1.407       .  A
C464        H468   1.083       .  S
C465        F478   1.384       .  S
C465        F479   1.382       .  S
C465        F480   1.382       .  S
C467        F475   1.385       .  S
C467        F476   1.382       .  S
C467        F477   1.382       .  S
C481        C482   1.391   1_455  A
C481        C486   1.412       .  A
C481        H491   1.083       .  S
C482        C487   1.492       .  S
C482        C483   1.407       .  A
C483        C488   1.520       .  S
C483        C484   1.411       .  A
C484        C485   1.425       .  A
C484        H489   1.073       .  S
C485        C486   1.456   1_655  A
C486        C490   1.535       .  S
C487        C492   1.416       .  A
C487        C496   1.404   1_655  A
C488        F504   1.383       .  S
C488        F505   1.382       .  S
C488        F506   1.384       .  S
C490        F501   1.385       .  S
C490        F502   1.380       .  S
C490        F503   1.376       .  S
C492        C497   1.517       .  S
C492        C493   1.406       .  A
C493        C494   1.401       .  A
C493        H498   1.081       .  S
C494        C495   1.419   1_655  A
C495        C499   1.518       .  S
C495        C496   1.412       .  A
C496        H500   1.083       .  S
C497        F510   1.385       .  S
C497        F511   1.381       .  S
C497        F512   1.381       .  S
C499        F507   1.382       .  S
C499        F508   1.384       .  S
C499        F509   1.385       .  S
C513        C514   1.403   1_655  A
C513        C518   1.411       .  A
C513        H523   1.083       .  S
C514        C519   1.490       .  S
C514        C515   1.416       .  A
C515        C520   1.519       .  S
C515        C516   1.406       .  A
C516        C517   1.403       .  A
C516        H521   1.081       .  S
C517        C518   1.419   1_455  A
C518        C522   1.518       .  S
C519        C524   1.401   1_455  A
C519        C528   1.392       .  A
C520        F536   1.382       .  S
C520        F537   1.382       .  S
C520        F538   1.384       .  S
C522        F533   1.382       .  S
C522        F534   1.385       .  S
C522        F535   1.384       .  S
C524        C529   1.521       .  S
C524        C525   1.402       .  A
C525        C526   1.432   1_655  A
C525        H530   1.079       .  S
C526        C527   1.464       .  A
C527        C531   1.539       .  S
C527        C528   1.420       .  A
C528        H532   1.082       .  S
C529        F542   1.385       .  S
C529        F543   1.382       .  S
C529        F544   1.382       .  S
C531        F539   1.380       .  S
C531        F540   1.373       .  S
C531        F541   1.386       .  S
C545        C546   1.394       .  A
C545        C550   1.415       .  A
C545        H555   1.083       .  S
C546        C551   1.490       .  S
C546        C547   1.406   1_455  A
C547        C552   1.521       .  S
C547        C548   1.407       .  A
C548        C549   1.423   1_655  A
C548        H553   1.076       .  S
C549        C550   1.449       .  A
C550        C554   1.525       .  S
C551        C556   1.417       .  A
C551        C560   1.402   1_455  A
C552        F568   1.382       .  S
C552        F569   1.382       .  S
C552        F570   1.384       .  S
C554        F565   1.385       .  S
C554        F566   1.375       .  S
C556        C561   1.519       .  S
C556        C557   1.411       .  A
C557        C558   1.405       .  A
C557        H562   1.083       .  S
C558        C559   1.417   1_455  A
C559        C563   1.515       .  S
C559        C560   1.408       .  A
C560        H564   1.083       .  S
C561        F574   1.384       .  S
C561        F575   1.382       .  S
C561        F576   1.382       .  S
C563        F571   1.385       .  S
C563        F572   1.382       .  S
C563        F573   1.382       .  S
C577        C582   1.409       .  A
C577        H587   1.083       .  S
C578        C583   1.490       .  S
C578        C579   1.406       .  A
C579        C584   1.519       .  S
C579        C580   1.411       .  A
C580        H585   1.075       .  S
C581        C582   1.453       .  A
C582        C586   1.526       .  S
C583        C588   1.407       .  A
C584        F600   1.381       .  S
C584        F601   1.383       .  S
C584        F602   1.385       .  S
C586        F597   1.386       .  S
C586        F598   1.378       .  S
C586        F599   1.366   1_565  S
C588        C593   1.521       .  S
C588        C589   1.396       .  A
C589        H594   1.076       .  S
C590        C591   1.453       .  A
C591        C595   1.532       .  S
C591        C592   1.416       .  A
C592        H596   1.082       .  S
C593        F606   1.384       .  S
C593        F607   1.383       .  S
C593        F608   1.379       .  S
C595        F603   1.385       .  S
C595        F604   1.374       .  S
C595        F605   1.380       .  S
C609        C614   1.415       .  A
C609        H619   1.082       .  S
C610        C615   1.482       .  S
C610        C611   1.410       .  A
C611        C616   1.523       .  S
C611        C612   1.399       .  A
C612        H617   1.075       .  S
C613        C614   1.456       .  A
C614        C618   1.532       .  S
C615        C620   1.401       .  A
C616        F632   1.383   1_556  S
C616        F633   1.381       .  S
C616        F634   1.383       .  S
C618        F629   1.381       .  S
C618        F630   1.385       .  S
C618        F631   1.374       .  S
C620        C625   1.523       .  S
C620        C621   1.403       .  A
C621        H626   1.072       .  S
C622        C623   1.461       .  A
C623        C627   1.538       .  S
C623        C624   1.416       .  A
C624        H628   1.082       .  S
C625        F638   1.385       .  S
C625        F639   1.382       .  S
C625        F640   1.383       .  S
C627        F635   1.386       .  S
C627        F636   1.372       .  S
C627        F637   1.373   1_655  S
C641        C642   1.398   1_565  A
C641        C646   1.407       .  A
C641        H651   1.083       .  S
C642        C647   1.487       .  S
C642        C643   1.414       .  A
C643        C648   1.519       .  S
C643        C644   1.408       .  A
C644        C645   1.409       .  A
C644        H649   1.083       .  S
C645        C646   1.429   1_545  A
C646        C650   1.522       .  S
C647        C652   1.405       .  A
C647        C656   1.391       .  A
C648        F664   1.382       .  S
C648        F665   1.382       .  S
C648        F666   1.385       .  S
C650        F661   1.385       .  S
C650        F662   1.383       .  S
C650        F663   1.383       .  S
C652        C657   1.523       .  S
C652        C653   1.404       .  A
C653        C654   1.427       .  A
C653        H658   1.072       .  S
C654        C655   1.458       .  A
C655        C659   1.533       .  S
C655        C656   1.414       .  A
C656        H660   1.082       .  S
C657        F670   1.384       .  S
C657        F671   1.382   1_545  S
C657        F672   1.383       .  S
C659        F667   1.385       .  S
C659        F668   1.373   1_545  S
C659        F669   1.380       .  S
C673        C674   1.389       .  A
C673        C678   1.412       .  A
C673        H683   1.086       .  S
C674        C679   1.479       .  S
C674        C675   1.401   1_545  A
C675        C680   1.523       .  S
C675        C676   1.401       .  A
C676        C677   1.431   1_565  A
C676        H681   1.081       .  S
C677        C678   1.462       .  A
C678        C682   1.539       .  S
C679        C684   1.413   1_545  A
C679        C688   1.400       .  A
C680        F696   1.383       .  S
C680        F697   1.381       .  S
C680        F698   1.384       .  S
C682        F693   1.386       .  S
C682        F694   1.383       .  S
C682        F695   1.363       .  S
C684        C689   1.520       .  S
C684        C685   1.403       .  A
C685        C686   1.404   1_565  A
C685        H690   1.083       .  S
C686        C687   1.422       .  A
C687        C691   1.520       .  S
C687        C688   1.407       .  A
C688        H692   1.083       .  S
C689        F702   1.385       .  S
C689        F703   1.383   1_565  S
C689        F704   1.381       .  S
C691        F699   1.383       .  S
C691        F700   1.380       .  S
C691        F701   1.385       .  S
C705        C710   1.418       .  A
C705        H715   1.081       .  S
C706        C711   1.493       .  S
C706        C707   1.408       .  A
C707        C712   1.521       .  S
C707        C708   1.402       .  A
C708        H713   1.076       .  S
C709        C710   1.455       .  A
C710        C714   1.523       .  S
C711        C716   1.409       .  A
C712        F728   1.383   1_556  S
C712        F729   1.381       .  S
C712        F730   1.384       .  S
C714        F725   1.378       .  S
C714        F726   1.385       .  S
C714        F727   1.366       .  S
C716        C721   1.520       .  S
C716        C717   1.412       .  A
C717        H722   1.074       .  S
C718        C719   1.457       .  A
C719        C723   1.535       .  S
C719        C720   1.411       .  A
C720        H724   1.083       .  S
C721        F734   1.385       .  S
C721        F735   1.381       .  S
C721        F736   1.384       .  S
C723        F731   1.380       .  S
C723        F732   1.375   1_455  S
C723        F733   1.385       .  S
C737        C742   1.406       .  A
C737        H747   1.083       .  S
C738        C743   1.485   1_554  S
C738        C739   1.403   1_554  A
C739        C744   1.520       .  S
C739        C740   1.412       .  A
C740        H745   1.075       .  S
C741        C742   1.456       .  A
C742        C746   1.527       .  S
C743        C748   1.403       .  A
C744        F760   1.383       .  S
C744        F761   1.382       .  S
C744        F762   1.384       .  S
C746        F757   1.386       .  S
C746        F758   1.377       .  S
C746        F759   1.367   1_545  S
C748        C753   1.524       .  S
C748        C749   1.401       .  A
C749        H754   1.077       .  S
C750        C751   1.461       .  A
C751        C755   1.536       .  S
C751        C752   1.418       .  A
C752        H756   1.085       .  S
C753        F766   1.384       .  S
C753        F767   1.383       .  S
C753        F768   1.381       .  S
C755        F763   1.387       .  S
C755        F764   1.368       .  S
C755        F765   1.380       .  S
C769        C770   1.401       .  A
C769        C774   1.410       .  A
C769        H779   1.083       .  S
C770        C775   1.485       .  S
C770        C771   1.411   1_565  A
C771        C776   1.521       .  S
C771        C772   1.405       .  A
C772        C773   1.413   1_545  A
C772        H777   1.081       .  S
C773        C774   1.427       .  A
C774        C778   1.520       .  S
C775        C780   1.403       .  A
C775        C784   1.386       .  A
C776        F792   1.382       .  S
C776        F793   1.382       .  S
C776        F794   1.385       .  S
C778        F789   1.385       .  S
C778        F790   1.383       .  S
C778        F791   1.383       .  S
C780        C785   1.519       .  S
C780        C781   1.407       .  A
C781        C782   1.431       .  A
C781        H786   1.079       .  S
C782        C783   1.465       .  A
C783        C787   1.539   1_556  S
C783        C784   1.408       .  A
C784        H788   1.087       .  S
C785        F798   1.384       .  S
C785        F799   1.382       .  S
C785        F800   1.382   1_565  S
C787        F795   1.387   1_554  S
C787        F797   1.383       .  S
C801        C802   1.392       .  A
C801        C806   1.415       .  A
C801        H811   1.086       .  S
C802        C807   1.477       .  S
C802        C803   1.402   1_565  A
C803        C808   1.525       .  S
C803        C804   1.399       .  A
C804        C805   1.431   1_545  A
C804        H809   1.080       .  S
C805        C806   1.461       .  A
C806        C810   1.533       .  S
C807        C812   1.413   1_565  A
C807        C816   1.399       .  A
C808        F824   1.382       .  S
C808        F825   1.381       .  S
C808        F826   1.384       .  S
C810        F821   1.386       .  S
C810        F822   1.384       .  S
C810        F823   1.359       .  S
C812        C817   1.519       .  S
C812        C813   1.407       .  A
C813        C814   1.405   1_545  A
C813        H818   1.084       .  S
C814        C815   1.420       .  A
C815        C819   1.521       .  S
C815        C816   1.403       .  A
C816        H820   1.084       .  S
C817        F830   1.385       .  S
C817        F831   1.383   1_545  S
C817        F832   1.381       .  S
C819        F827   1.382       .  S
C819        F828   1.380       .  S
C819        F829   1.385       .  S
