geometry optimzed in LAMMPS
_audit_creation_date              2020-11-30 
_audit_creation_method            'lammps2cif' 
_symmetry_space_group_name_H-M    'P1' 
_symmetry_Int_Tables_number       1 
_symmetry_cell_setting            triclinic 
loop_ 
_symmetry_equiv_pos_as_xyz 
  x,y,z 
_cell_length_a                    32.77039816 
_cell_length_b                    30.905477831871146 
_cell_length_c                    45.68003115005114 
_cell_angle_alpha                 93.30203699472925 
_cell_angle_beta                  90.19142487305307 
_cell_angle_gamma                 92.93934692295025 
loop_ 
_atom_site_label 
_atom_site_type_symbol 
_atom_site_fract_x 
_atom_site_fract_y 
_atom_site_fract_z 
_atom_site_charge 
N1          N  0.57461928  0.99706702  0.12661544    -0.27700
N2          N  0.55558652  0.01860712  0.10695445    -0.35600
C3          C  0.58155369  0.02740454  0.08505513     0.00600
C4          C  0.61857336  0.00972757  0.09065165     0.06600
C5          C  0.61300403  0.99087238  0.11735159    -0.06500
H6          H  0.57285671  0.04234002  0.06540028     0.07300
H7          H  0.63459495  0.97213718  0.12852709     0.08500
Cu8        Cu  0.50663717  0.52873987  0.10222252     0.44200
Cu9        Cu  0.54561050  0.97421159  0.16378475     0.42000
Cu10       Cu  0.45731009  0.46395878  0.15760354     0.43900
N11         N  0.44546428  0.50691161  0.10068086    -0.35100
N12         N  0.42844126  0.47998850  0.11911942    -0.29400
C13         C  0.39148567  0.46550390  0.10842499    -0.05500
C14         C  0.38473020  0.48467987  0.08219361     0.06700
C15         C  0.41950216  0.51101425  0.07829446     0.00500
H16         H  0.37143700  0.44200203  0.11866160     0.08200
H17         H  0.42675190  0.52981032  0.05970567     0.07300
N18         N  0.46756580  0.95620152  0.19724218    -0.36600
N19         N  0.50792343  0.95950726  0.19901689    -0.28800
C20         C  0.51924347  0.95545042  0.22707378    -0.04000
C21         C  0.48427391  0.94943715  0.24374118     0.04600
C22         C  0.45221716  0.95005660  0.22404842     0.02700
H23         H  0.55053449  0.95848852  0.23482073     0.07800
H24         H  0.45214423  0.45074365  0.22946677     0.06600
N25         N  0.41770747  0.48845056  0.44851482    -0.27700
N26         N  0.43774077  0.51308405  0.46894634    -0.35600
C27         C  0.41385611  0.51785371  0.49267074     0.00600
C28         C  0.37715814  0.49447172  0.48728875     0.06600
C29         C  0.38071149  0.47627967  0.45895645    -0.06500
H30         H  0.42610231  0.52821773  0.01115790     0.07300
H31         H  0.35862840  0.45457304  0.44715775     0.08500
Cu32       Cu  0.49959330  0.53059233  0.46615981     0.44200
Cu33       Cu  0.44362159  0.47135380  0.40819223     0.42000
Cu34       Cu  0.55822055  0.97428014  0.41223916     0.43900
N35         N  0.56239047  0.52471422  0.46578344    -0.35100
N36         N  0.58271465  0.99605604  0.45274569    -0.29400
C37         C  0.61932952  0.98797724  0.46413561    -0.05500
C38         C  0.62212328  0.00707780  0.49233171     0.06700
C39         C  0.58548496  0.02682428  0.49665607     0.00500
H40         H  0.64159340  0.96826903  0.45309475     0.08200
H41         H  0.58050997  0.54006700  0.00715552     0.07300
N42         N  0.52537716  0.96039415  0.37356383    -0.36600
N43         N  0.47688275  0.46439528  0.36957010    -0.28800
C44         C  0.46166724  0.45808882  0.34217215    -0.04000
C45         C  0.50868697  0.95037014  0.32651543     0.04600
C46         C  0.54072342  0.95452550  0.34642529     0.02700
H47         H  0.42942478  0.45478465  0.33682217     0.07800
H48         H  0.57299044  0.95527666  0.34142048     0.06600
C49         C  0.21163181  0.17678025  0.03411181     0.86000
C50         C  0.18428888  0.18663451  0.06095617    -0.54200
C51         C  0.16183546  0.22242345  0.05879099     0.09000
C52         C  0.16990607  0.24611098  0.03058287     0.19900
C53         C  0.18248603  0.17530651  0.00757671    -0.54900
C54         C  0.16050249  0.21125945  0.00588277     0.09100
C55         C  0.23834703  0.21908338  0.03199132    -0.54500
C56         C  0.21676076  0.25583802  0.03016161     0.09600
H57         H  0.18141699  0.16592137  0.07931069     0.14200
H58         H  0.15138783  0.27479663  0.02856395    -0.00100
H59         H  0.17271841  0.15866787  0.49553238     0.14500
H60         H  0.27131810  0.22020306  0.03377742     0.14200
C61         C  0.29825465  0.43093550  0.03288398     0.86000
C62         C  0.32473534  0.43909435  0.00572506    -0.54200
C63         C  0.34769174  0.47733857  0.00753166     0.09000
C64         C  0.33487642  0.00230548  0.03034969     0.19900
C65         C  0.32817606  0.43652362  0.05903507    -0.54900
C66         C  0.35082148  0.47496213  0.06070275     0.09100
C67         C  0.27220124  0.47111365  0.03574690    -0.54500
C68         C  0.28826186  0.00838332  0.02990887     0.09600
H69         H  0.32210463  0.42358343  0.48916265     0.14200
H70         H  0.35390691  0.03301549  0.03226683    -0.00100
H71         H  0.33219940  0.41124142  0.07418651     0.14500
H72         H  0.23920699  0.46904681  0.03452175     0.14200
N73         N  0.92161228  0.25991333  0.12049201    -0.27700
N74         N  0.94415707  0.26691030  0.09708479    -0.35600
C75         C  0.91964164  0.26930707  0.07365333     0.00600
C76         C  0.87959814  0.26362247  0.08243071     0.06600
C77         C  0.88177158  0.25805183  0.11235877    -0.06500
H78         H  0.93031425  0.27461528  0.05171579     0.07300
H79         H  0.85640031  0.25205928  0.12692073     0.08500
Cu80       Cu  0.00750202  0.26873054  0.09651125     0.44200
Cu81       Cu  0.94817546  0.25058752  0.16157205     0.42000
Cu82       Cu  0.05687150  0.22461311  0.15629422     0.43900
N83         N  0.06827787  0.25318745  0.09546043    -0.35100
N84         N  0.08569853  0.23330009  0.11665617    -0.29400
C85         C  0.12256212  0.22074002  0.10759562    -0.05500
C86         C  0.12875923  0.23389081  0.07937622     0.06700
C87         C  0.09382670  0.25472861  0.07257886     0.00500
H88         H  0.14278562  0.20243911  0.12030899     0.08200
H89         H  0.08617456  0.26741563  0.05180209     0.07300
N90         N  0.02466207  0.22983063  0.19516331    -0.36600
N91         N  0.98596300  0.23989007  0.19758614    -0.28800
C92         C  0.97642154  0.24292903  0.22633213    -0.04000
C93         C  0.01080296  0.23445470  0.24260171     0.04600
C94         C  0.04056552  0.22628586  0.22203179     0.02700
H95         H  0.94681009  0.25125331  0.23465698     0.07800
H96         H  0.07192746  0.21909400  0.22630191     0.06600
N97         N  0.07799303  0.22530723  0.45021184    -0.27700
N98         N  0.05492612  0.22268070  0.47381197    -0.35600
C99         C  0.07878674  0.22152450  0.49763997     0.00600
C100        C  0.11899497  0.22328644  0.48894833     0.06600
C101        C  0.11762346  0.22525385  0.45864442    -0.06500
H102        H  0.07365861  0.20315952  0.01924812     0.07300
H103        H  0.14341319  0.22740471  0.44398572     0.08500
Cu104      Cu  0.99194928  0.22184454  0.47384046     0.44200
Cu105      Cu  0.05224657  0.23114087  0.40842485     0.42000
Cu106      Cu  0.94157035  0.25359455  0.41113227     0.43900
N107        N  0.93008115  0.23080976  0.47300098    -0.35100
N108        N  0.91146895  0.24609382  0.45043063    -0.29400
C109        C  0.87297153  0.25484192  0.45813001    -0.05500
C110        C  0.86717772  0.24375981  0.48686884     0.06700
C111        C  0.90393355  0.22831511  0.49541980     0.00500
H112        H  0.85133212  0.26930508  0.44419272     0.08200
H113        H  0.91891547  0.21218941  0.01793697     0.07300
N114        N  0.97604820  0.24845831  0.37325845    -0.36600
N115        N  0.01517602  0.23970273  0.37163382    -0.28800
C116        C  0.02581593  0.23680568  0.34305701    -0.04000
C117        C  0.99169935  0.24403043  0.32614404     0.04600
C118        C  0.96101529  0.25130022  0.34609774     0.02700
H119        H  0.05599260  0.22961597  0.33527285     0.07800
H120        H  0.92960104  0.25754801  0.34120149     0.06600
C121        C  0.79116312  0.29604891  0.03428432     0.86000
C122        C  0.82107939  0.29903823  0.06057159    -0.54200
C123        C  0.84324037  0.26326023  0.06302830     0.09000
C124        C  0.83323187  0.22710093  0.03908914     0.19900
C125        C  0.81774156  0.28469673  0.00735933    -0.54900
C126        C  0.84016627  0.24906500  0.00994046     0.09100
C127        C  0.76461007  0.25395976  0.03839536    -0.54500
C128        C  0.78643949  0.21764472  0.04073429     0.09600
H129        H  0.82620495  0.32816110  0.07485654     0.14200
H130        H  0.85151119  0.19820033  0.04133824    -0.00100
H131        H  0.81317682  0.30986598  0.48580636     0.14500
H132        H  0.73158659  0.25191457  0.03842477     0.14200
C133        C  0.71128459  0.46323320  0.02777048     0.86000
C134        C  0.68346671  0.46832498  0.05472423    -0.54200
C135        C  0.66057226  0.50397830  0.05541799     0.09000
C136        C  0.66151685  0.03244578  0.04350362     0.19900
C137        C  0.68273812  0.46556842  0.00112981    -0.54900
C138        C  0.65986705  0.50134747  0.00188367     0.09100
C139        C  0.73732789  0.50647726  0.02861861    -0.54500
C140        C  0.70823918  0.04362762  0.04456668     0.09600
H141        H  0.68123829  0.44469194  0.07141788     0.14200
H142        H  0.64262097  0.06121813  0.04329476    -0.00100
H143        H  0.67561548  0.44687636  0.48524584     0.14500
H144        H  0.77033934  0.50882099  0.02989524     0.14200
C145        C  0.72931953  0.16622765  0.05750175    -0.13800
C146        C  0.76647011  0.17310948  0.04252442     0.08400
C147        C  0.78383166  0.13718438  0.02816664    -0.13800
C148        C  0.76474895  0.09561959  0.02870443    -0.13800
C149        C  0.72775948  0.08854203  0.04377544     0.08400
C150        C  0.71017869  0.12446548  0.05807702    -0.13800
H151        H  0.71517967  0.19309246  0.06901824     0.12300
H152        H  0.81178792  0.14128168  0.01584441     0.12300
H153        H  0.77879322  0.06901866  0.01681724     0.12300
H154        H  0.68196883  0.12021675  0.07008564     0.12300
C155        C  0.72687092  0.34141035  0.03165428    -0.13800
C156        C  0.76963906  0.33865964  0.03120355     0.08400
C157        C  0.79355801  0.37732846  0.02785250    -0.13800
C158        C  0.77567099  0.41741939  0.02609208    -0.13800
C159        C  0.73295845  0.42025466  0.02750569     0.08400
C160        C  0.70901883  0.38133537  0.02955982    -0.13800
H161        H  0.70652047  0.31329129  0.03374774     0.12300
H162        H  0.82654153  0.37653911  0.02698663     0.12300
H163        H  0.79576937  0.44571797  0.02375132     0.12300
H164        H  0.67601439  0.38200818  0.03022502     0.12300
C165        C  0.98659293  0.24365240  0.29387558    -0.16900
C166        C  0.01658821  0.23482283  0.27485344    -0.32100
H167        H  0.95670065  0.25072939  0.28564193     0.12100
H168        H  0.04647981  0.22759084  0.28302100     0.12700
C169        C  0.21560104  0.33756283  0.03935973    -0.13800
C170        C  0.23678787  0.30079877  0.02996192     0.08400
C171        C  0.27778127  0.30738703  0.02138933    -0.13800
C172        C  0.29696321  0.34902289  0.02259433    -0.13800
C173        C  0.27557955  0.38599632  0.03127193     0.08400
C174        C  0.23456125  0.37939576  0.03994624    -0.13000
H175        H  0.18461096  0.33428857  0.04724599     0.12300
H176        H  0.29543532  0.28045464  0.01367850     0.12300
H177        H  0.32885107  0.35232374  0.01656958     0.12300
H178        H  0.21709502  0.40599826  0.04834229     0.12300
C179        C  0.27336750  0.12959923  0.02408988    -0.13800
C180        C  0.23363404  0.13422004  0.03521964     0.08400
C181        C  0.21206030  0.09663567  0.04411331    -0.13800
C182        C  0.22994645  0.05641080  0.04303453    -0.13800
C183        C  0.26962319  0.05184808  0.03197217     0.08400
C184        C  0.29105561  0.08911409  0.02256670    -0.13800
H185        H  0.29050420  0.15664124  0.01532657     0.12300
H186        H  0.18086660  0.09815712  0.05166525     0.12300
H187        H  0.21235724  0.02889413  0.05086324     0.12300
H188        H  0.32108721  0.08699507  0.01301715     0.12300
C189        C  0.48029419  0.94736904  0.27593695    -0.16900
C190        C  0.51266736  0.94813691  0.29416403    -0.32100
H191        H  0.55282811  0.46250794  0.28149498     0.12100
H192        H  0.54334580  0.94868664  0.28527761     0.12700
N193        N  0.57613391  0.99856141  0.62541288    -0.27700
N194        N  0.55792835  0.02211276  0.60648238    -0.35600
C195        C  0.58395642  0.03069102  0.58463280     0.00600
C196        C  0.62005329  0.01078240  0.58948233     0.06600
C197        C  0.61400529  0.99085745  0.61570640    -0.06500
H198        H  0.57579838  0.04726241  0.56553005     0.07300
H199        H  0.63483888  0.97055505  0.62628706     0.08500
Cu200      Cu  0.50294918  0.53116815  0.60372960     0.44200
Cu201      Cu  0.54708808  0.97549378  0.66234197     0.42000
Cu202      Cu  0.45212352  0.46637704  0.65840271     0.43900
N203        N  0.44100236  0.51258552  0.60265801    -0.35100
N204        N  0.42313069  0.48592492  0.62089958    -0.29400
C205        C  0.38568483  0.47322983  0.61026793    -0.05500
C206        C  0.37958857  0.49319139  0.58422973     0.06700
C207        C  0.41517483  0.51826644  0.58045737     0.00500
H208        H  0.36509697  0.44989217  0.62017675     0.08200
H209        H  0.42318630  0.53678601  0.56186364     0.07300
N210        N  0.46963110  0.96065971  0.69675144    -0.36600
N211        N  0.51000119  0.96141538  0.69787119    -0.28800
C212        C  0.52188361  0.95512784  0.72551285    -0.04000
C213        C  0.48728577  0.95024482  0.74270128     0.04600
C214        C  0.45481719  0.95384565  0.72365517     0.02700
H215        H  0.55341382  0.95564660  0.73263606     0.07800
H216        H  0.44845011  0.44598457  0.72926402     0.06600
N217        N  0.41914881  0.48303229  0.94653449    -0.27700
N218        N  0.43945999  0.50752664  0.96688442    -0.35600
C219        C  0.41584490  0.51196361  0.99077858     0.00600
C220        C  0.37919012  0.48837935  0.98553220     0.06600
C221        C  0.38237139  0.47061589  0.95711351    -0.06500
H222        H  0.42377023  0.53466660  0.51295975     0.07300
H223        H  0.36045119  0.44852953  0.94546805     0.08500
Cu224      Cu  0.50164957  0.52390504  0.96391958     0.44200
Cu225      Cu  0.44459676  0.46470662  0.90660262     0.42000
Cu226      Cu  0.56378419  0.97110377  0.91119656     0.43900
N227        N  0.56445408  0.51686278  0.96347209    -0.35100
N228        N  0.58664875  0.99395858  0.95228380    -0.29400
C229        C  0.62341415  0.98801640  0.96432505    -0.05500
C230        C  0.62430264  0.00651386  0.99278955     0.06700
C231        C  0.58639582  0.02367391  0.99656545     0.00500
H232        H  0.64699832  0.96971205  0.95365960     0.08200
H233        H  0.57796026  0.54707793  0.50972417     0.07300
N234        N  0.53101618  0.95577966  0.87231567    -0.36600
N235        N  0.47715831  0.45482173  0.86826175    -0.28800
C236        C  0.46124942  0.44770169  0.84115415    -0.04000
C237        C  0.51387451  0.94678661  0.82516970     0.04600
C238        C  0.54611251  0.95292896  0.84491170     0.02700
H239        H  0.42887642  0.44528203  0.83618195     0.07800
H240        H  0.57817937  0.95717232  0.83964032     0.06600
C241        C  0.20457987  0.18795362  0.53806058     0.86000
C242        C  0.17591133  0.19695869  0.56435397    -0.54200
C243        C  0.15334125  0.23264165  0.56214259     0.09000
C244        C  0.16253895  0.25706461  0.53420782     0.19900
C245        C  0.17677035  0.18686535  0.51079007    -0.54900
C246        C  0.15460776  0.22270075  0.50884194     0.09100
C247        C  0.23103891  0.23050658  0.53698997    -0.54500
C248        C  0.20944133  0.26716497  0.53471016     0.09600
H249        H  0.17271344  0.17629505  0.58269361     0.14200
H250        H  0.14398374  0.28569745  0.53207755    -0.00100
H251        H  0.17727965  0.14672488  0.99279153     0.14500
H252        H  0.26399463  0.23143041  0.53913709     0.14200
C253        C  0.29308406  0.44113098  0.53427280     0.86000
C254        C  0.32057971  0.44761863  0.50736216    -0.54200
C255        C  0.34469021  0.48508354  0.50900253     0.09000
C256        C  0.33364667  0.01788542  0.53241042     0.19900
C257        C  0.32232455  0.44647373  0.56081339    -0.54900
C258        C  0.34608492  0.48415678  0.56234285     0.09100
C259        C  0.26827550  0.48229808  0.53630019    -0.54500
C260        C  0.28678697  0.02269257  0.53300178     0.09600
H261        H  0.32645776  0.41563756  0.98720648     0.14200
H262        H  0.35193942  0.04913965  0.53443379    -0.00100
H263        H  0.32506413  0.42147966  0.57636379     0.14500
H264        H  0.23528015  0.48138448  0.53503148     0.14200
N265        N  0.91152808  0.26247037  0.61671530    -0.27700
N266        N  0.93474910  0.27314164  0.59439234    -0.35600
C267        C  0.91091332  0.27634234  0.57071583     0.00600
C268        C  0.87091204  0.26712678  0.57860014     0.06600
C269        C  0.87218695  0.25880217  0.60792532    -0.06500
H270        H  0.92196101  0.28440007  0.54932436     0.07300
H271        H  0.84665875  0.24980947  0.62165967     0.08500
Cu272      Cu  0.99798972  0.27783180  0.59645654     0.44200
Cu273      Cu  0.93558305  0.25060715  0.65714189     0.42000
Cu274      Cu  0.04459973  0.23184564  0.65934243     0.43900
N275        N  0.05877462  0.26277630  0.59814745    -0.35100
N276        N  0.07518712  0.24222755  0.61953933    -0.29400
C277        C  0.11234079  0.22971295  0.61072181    -0.05500
C278        C  0.11970882  0.24367664  0.58268029     0.06700
C279        C  0.08515248  0.26491342  0.57575230     0.00500
H280        H  0.13203530  0.21080757  0.62343042     0.08200
H281        H  0.07821031  0.27821680  0.55504975     0.07300
N282        N  0.00624458  0.23174209  0.69642586    -0.36600
N283        N  0.96679314  0.23873367  0.69501044    -0.28800
C284        C  0.95081700  0.23894186  0.72206852    -0.04000
C285        C  0.98136729  0.23203173  0.74184667     0.04600
C286        C  0.01627056  0.22744421  0.72481251     0.02700
H287        H  0.91927164  0.24487167  0.72708041     0.07800
H288        H  0.04683498  0.22242848  0.73246883     0.06600
N289        N  0.08079640  0.21591032  0.95027733    -0.27700
N290        N  0.05870946  0.21052197  0.97402985    -0.35600
C291        C  0.08375790  0.20771829  0.99708952     0.00600
C292        C  0.12358419  0.21135324  0.98738806     0.06600
C293        C  0.12076382  0.21622825  0.95753114    -0.06500
H294        H  0.06750485  0.21882696  0.51968610     0.07300
H295        H  0.14575242  0.22070184  0.94240434     0.08500
Cu296      Cu  0.99553867  0.20951686  0.97377375     0.44200
Cu297      Cu  0.05320056  0.22433062  0.91018439     0.42000
Cu298      Cu  0.94133988  0.23849442  0.90859091     0.43900
N299        N  0.93374226  0.21987894  0.97280219    -0.35100
N300        N  0.91402647  0.23405845  0.95021630    -0.29400
C301        C  0.87652465  0.24508845  0.95935503    -0.05500
C302        C  0.87257009  0.23661814  0.98886994     0.06700
C303        C  0.90932205  0.22024936  0.99633958     0.00500
H304        H  0.85430577  0.25945219  0.94583774     0.08200
H305        H  0.91211327  0.21880213  0.51698775     0.07300
N306        N  0.97907859  0.23518582  0.87115620    -0.36600
N307        N  0.01897465  0.23025931  0.87241389    -0.28800
C308        C  0.03411408  0.22796509  0.84510278    -0.04000
C309        C  0.00269501  0.23138317  0.82535894     0.04600
C310        C  0.96804501  0.23603292  0.84263162     0.02700
H311        H  0.06588252  0.22348683  0.83995176     0.07800
H312        H  0.93708901  0.23926907  0.83510276     0.06600
C313        C  0.78310891  0.29929063  0.53091033     0.86000
C314        C  0.81249289  0.30190032  0.55735472    -0.54200
C315        C  0.83495725  0.26648343  0.55934121     0.09000
C316        C  0.82570199  0.23083499  0.53520511     0.19900
C317        C  0.81010100  0.28898883  0.50408813    -0.54900
C318        C  0.83291795  0.25368356  0.50659845     0.09100
C319        C  0.75671301  0.25691208  0.53432882    -0.54500
C320        C  0.77907786  0.22085867  0.53640149     0.09600
H321        H  0.81722693  0.33064638  0.57206296     0.14200
H322        H  0.84433268  0.20217196  0.53736292    -0.00100
H323        H  0.82026675  0.30469691  0.98859875     0.14500
H324        H  0.72366183  0.25466129  0.53427283     0.14200
C325        C  0.70767533  0.46819482  0.52926617     0.86000
C326        C  0.68020862  0.47291233  0.55635056    -0.54200
C327        C  0.65794362  0.50900629  0.55764142     0.09000
C328        C  0.66109951  0.03319887  0.54189990     0.19900
C329        C  0.67926866  0.47196600  0.50284450    -0.54900
C330        C  0.65716074  0.50819535  0.50419361     0.09100
C331        C  0.73457889  0.51081821  0.53062671    -0.54500
C332        C  0.70750615  0.04506682  0.54206664     0.09600
H333        H  0.67746249  0.44854023  0.57253180     0.14200
H334        H  0.64184702  0.06169005  0.54194411    -0.00100
H335        H  0.67950918  0.43987574  0.98390970     0.14500
H336        H  0.76760157  0.51242070  0.53160768     0.14200
C337        C  0.72402126  0.16799415  0.55376774    -0.13800
C338        C  0.76033347  0.17602411  0.53814932     0.08400
C339        C  0.77880994  0.14077341  0.52380334    -0.13800
C340        C  0.76163604  0.09856294  0.52508161    -0.13800
C341        C  0.72553159  0.09032976  0.54086068     0.08400
C342        C  0.70681588  0.12559360  0.55510741    -0.13800
H343        H  0.70921572  0.19440646  0.56529777     0.12300
H344        H  0.80621594  0.14585234  0.51101825     0.12300
H345        H  0.77637324  0.07241475  0.51320895     0.12300
H346        H  0.67923292  0.12037991  0.56767294     0.12300
C347        C  0.71984153  0.34567789  0.52954623    -0.13800
C348        C  0.76238300  0.34209969  0.52857132     0.08400
C349        C  0.78726440  0.38033939  0.52618783    -0.13800
C350        C  0.77051055  0.42100283  0.52598819    -0.13800
C351        C  0.72804726  0.42474414  0.52794717     0.08400
C352        C  0.70305533  0.38631132  0.52899565    -0.13800
H353        H  0.69908992  0.31769830  0.53103158     0.12300
H354        H  0.82017394  0.37873478  0.52503973     0.12300
H355        H  0.79126580  0.44894307  0.52434705     0.12300
H356        H  0.67013761  0.38790598  0.53000196     0.12300
C357        C  0.00741803  0.22952598  0.79296030    -0.16900
C358        C  0.97618243  0.23244662  0.77418746    -0.32100
H359        H  0.03801312  0.22598799  0.78442008     0.12100
H360        H  0.94560629  0.23623047  0.78270890     0.12700
C361        C  0.20860180  0.34948539  0.54145216    -0.13800
C362        C  0.22971008  0.31199009  0.53359940     0.08400
C363        C  0.27093373  0.31770956  0.52532837    -0.13800
C364        C  0.29052685  0.35905692  0.52565433    -0.13800
C365        C  0.26943653  0.39669601  0.53304865     0.08400
C366        C  0.22803742  0.39112235  0.54110919    -0.13000
H367        H  0.17729419  0.34695401  0.54877779     0.12300
H368        H  0.28854977  0.29030475  0.51853986     0.12300
H369        H  0.32260866  0.36158563  0.52005498     0.12300
H370        H  0.21065225  0.41844573  0.54831011     0.12300
C371        C  0.26560733  0.14181636  0.52449924    -0.13800
C372        C  0.22794961  0.14613682  0.53903565     0.08400
C373        C  0.20965339  0.10875668  0.55087383    -0.13800
C374        C  0.22906401  0.06933880  0.54950265    -0.13800
C375        C  0.26695861  0.06541640  0.53548756     0.08400
C376        C  0.28502676  0.10226325  0.52309139    -0.13800
H377        H  0.27976558  0.16865110  0.51342789     0.12300
H378        H  0.17971419  0.10941980  0.56071024     0.12300
H379        H  0.21407897  0.04176823  0.55933158     0.12300
H380        H  0.31356863  0.10023246  0.51135864     0.12300
C381        C  0.48422663  0.94612545  0.77486198    -0.16900
C382        C  0.51707153  0.94664907  0.79272728    -0.32100
H383        H  0.55073130  0.45035012  0.77951286     0.12100
H384        H  0.54754029  0.94890342  0.78352822     0.12700
N385        N  0.59095025  0.50296392  0.11743919    -0.27700
N386        N  0.56951535  0.52377921  0.09872128    -0.35600
C387        C  0.59244910  0.53077139  0.07491417     0.00600
C388        C  0.62969367  0.51238296  0.07840599     0.06600
C389        C  0.62770735  0.49536450  0.10579856    -0.06500
H390        H  0.58120450  0.54442815  0.05550868     0.07300
H391        H  0.65031368  0.47651241  0.11581673     0.08500
Cu392      Cu  0.49261506  0.02439433  0.10656840     0.44200
Cu393      Cu  0.56701182  0.48110765  0.15611693     0.42000
Cu394      Cu  0.43462421  0.96432897  0.15918485     0.43900
N395        N  0.43104441  0.00566897  0.10138554    -0.35100
N396        N  0.41060515  0.98069468  0.11941172    -0.29400
C397        C  0.37475855  0.96676805  0.10673315    -0.05500
C398        C  0.37242642  0.98413142  0.07948272     0.06700
C399        C  0.40845494  0.00899737  0.07709855     0.00500
H400        H  0.35281103  0.94431027  0.11616798     0.08200
H401        H  0.41907925  0.02560595  0.05825517     0.07300
N402        N  0.49475696  0.45986413  0.19436708    -0.36600
N403        N  0.53495515  0.46601463  0.19350256    -0.28800
C404        C  0.55030560  0.46486984  0.22075870    -0.04000
C405        C  0.51839477  0.45792004  0.23989605     0.04600
C406        C  0.48349238  0.45474668  0.22237483     0.02700
H407        H  0.58229374  0.47057286  0.22642077     0.07800
H408        H  0.41995161  0.94778661  0.22904057     0.06600
N409        N  0.41834957  0.99330404  0.44606981    -0.27700
N410        N  0.43736342  0.01735507  0.46729203    -0.35600
C411        C  0.41154174  0.02330239  0.48981119     0.00600
C412        C  0.37472805  0.00101405  0.48296866     0.06600
C413        C  0.38014509  0.98255758  0.45488766    -0.06500
H414        H  0.42105233  0.02499104  0.00935988     0.07300
H415        H  0.35879317  0.96075345  0.44247731     0.08500
Cu416      Cu  0.50032521  0.02984635  0.46863271     0.44200
Cu417      Cu  0.44741661  0.97266039  0.40761805     0.42000
Cu418      Cu  0.55465358  0.48233093  0.40490238     0.43900
N419        N  0.56220546  0.01904436  0.47245674    -0.35100
N420        N  0.58208545  0.50357241  0.44468796    -0.29400
C421        C  0.61997462  0.49666598  0.45433593    -0.05500
C422        C  0.62439561  0.51482016  0.48274734     0.06700
C423        C  0.58743980  0.53273211  0.48899361     0.00500
H424        H  0.64190516  0.47795494  0.44212288     0.08200
H425        H  0.57432049  0.03802768  0.01654133     0.07300
N426        N  0.51720753  0.46860288  0.36825219    -0.36600
N427        N  0.48505915  0.95994508  0.37178182    -0.28800
C428        C  0.47375025  0.95382887  0.34341243    -0.04000
C429        C  0.49375721  0.45843142  0.32258914     0.04600
C430        C  0.52863144  0.46514877  0.33993893     0.02700
H431        H  0.44251152  0.95387827  0.33572265     0.07800
H432        H  0.55993747  0.46844990  0.33265435     0.06600
C433        C  0.21053511  0.67464404  0.03666159     0.86000
C434        C  0.18327366  0.68527880  0.06343213    -0.54200
C435        C  0.15948851  0.71983775  0.06030993     0.09000
C436        C  0.16616517  0.74166233  0.03112930     0.19900
C437        C  0.18091473  0.67011743  0.01031209    -0.54900
C438        C  0.15773168  0.70497261  0.00750988     0.09100
C439        C  0.23559931  0.71760322  0.03297311    -0.54500
C440        C  0.21269999  0.75317578  0.02989635     0.09600
H441        H  0.18156703  0.66596172  0.08254068     0.14200
H442        H  0.14637621  0.76913295  0.02836885    -0.00100
H443        H  0.17978297  0.65392242  0.49708132     0.14500
H444        H  0.26854052  0.72004209  0.03460051     0.14200
C445        C  0.29107431  0.92901296  0.02655225     0.86000
C446        C  0.31997192  0.93574111  0.00041755    -0.54200
C447        C  0.34349209  0.97359015  0.00256814     0.09000
C448        C  0.34102927  0.50495213  0.03608871     0.19900
C449        C  0.31869015  0.93517087  0.05393700    -0.54900
C450        C  0.34168581  0.97329027  0.05595406     0.09100
C451        C  0.26550817  0.96966907  0.02770034    -0.54500
C452        C  0.29422806  0.51023054  0.03755288     0.09600
H453        H  0.32148342  0.92872418  0.48312632     0.14200
H454        H  0.35966957  0.53592875  0.03759782    -0.00100
H455        H  0.32062249  0.91066010  0.06992597     0.14500
H456        H  0.23253992  0.96826769  0.02592731     0.14200
N457        N  0.92165031  0.76209217  0.12641541    -0.27700
N458        N  0.94326023  0.76694227  0.10231422    -0.35600
C459        C  0.91781096  0.76823458  0.07935380     0.00600
C460        C  0.87820400  0.76399811  0.08924435     0.06600
C461        C  0.88152142  0.76061576  0.11928326    -0.06500
H462        H  0.92756647  0.77210942  0.05704926     0.07300
H463        H  0.85676481  0.75635799  0.13462510     0.08500
Cu464      Cu  0.00637422  0.76765953  0.10021928     0.44200
Cu465      Cu  0.94946650  0.75528485  0.16702132     0.42000
Cu466      Cu  0.06006477  0.73452337  0.16163291     0.43900
N467        N  0.06704517  0.75227203  0.09807798    -0.35100
N468        N  0.08660332  0.73683519  0.12021087    -0.29400
C469        C  0.12319762  0.72378724  0.11068557    -0.05500
C470        C  0.12686226  0.73208846  0.08120297     0.06700
C471        C  0.09069855  0.75033603  0.07412302     0.00500
H472        H  0.14514628  0.70874918  0.12405309     0.08200
H473        H  0.08113127  0.75918547  0.05268935     0.07300
N474        N  0.02733675  0.74053102  0.20070576    -0.36600
N475        N  0.98797908  0.74807412  0.20283902    -0.28800
C476        C  0.97776308  0.75082414  0.23144380    -0.04000
C477        C  0.01234092  0.74480030  0.24807130     0.04600
C478        C  0.04299195  0.73840795  0.22781803     0.02700
H479        H  0.94744425  0.75696835  0.23940291     0.07800
H480        H  0.07461942  0.73279949  0.23248134     0.06600
N481        N  0.08141969  0.72179557  0.45198070    -0.27700
N482        N  0.05975626  0.71243696  0.47539193    -0.35600
C483        C  0.08507782  0.70893438  0.49819308     0.00600
C484        C  0.12462078  0.71618337  0.48884271     0.06600
C485        C  0.12144445  0.72424612  0.45941530    -0.06500
H486        H  0.07120013  0.69130739  0.01920227     0.07300
H487        H  0.14615508  0.73269886  0.44482381     0.08500
Cu488      Cu  0.99666167  0.71077213  0.47736462     0.44200
Cu489      Cu  0.05398776  0.73379359  0.41200521     0.42000
Cu490      Cu  0.94467028  0.75400443  0.41798559     0.43900
N491        N  0.93658192  0.72807376  0.47989928    -0.35100
N492        N  0.91812214  0.74715337  0.45876739    -0.29400
C493        C  0.88190168  0.76049887  0.46866681    -0.05500
C494        C  0.87728506  0.74870062  0.49732527     0.06700
C495        C  0.91243171  0.72794233  0.50358627     0.00500
H496        H  0.86082934  0.77798071  0.45608622     0.08200
H497        H  0.91761544  0.71090635  0.02244607     0.07300
N498        N  0.97673458  0.75171133  0.37880559    -0.36600
N499        N  0.01605116  0.74430034  0.37639591    -0.28800
C500        C  0.02616056  0.74329110  0.34778613    -0.04000
C501        C  0.99150903  0.75029857  0.33146022     0.04600
C502        C  0.96092337  0.75550905  0.35191431     0.02700
H503        H  0.05637278  0.73720255  0.33958888     0.07800
H504        H  0.92919141  0.76097866  0.34752611     0.06600
C505        C  0.78990147  0.79858560  0.04287087     0.86000
C506        C  0.81779651  0.79851379  0.07009038    -0.54200
C507        C  0.84123887  0.76344982  0.07067527     0.09000
C508        C  0.83408059  0.73068710  0.04433862     0.19900
C509        C  0.81894666  0.79254170  0.01645874    -0.54900
C510        C  0.84238402  0.75726922  0.01743729     0.09100
C511        C  0.76458502  0.75493737  0.04284805    -0.54500
C512        C  0.78766513  0.71922502  0.04335903     0.09600
H513        H  0.82146462  0.82586366  0.08608480     0.14200
H514        H  0.85300172  0.70205444  0.04540601    -0.00100
H515        H  0.82430056  0.81689096  0.49919951     0.14500
H516        H  0.73165124  0.75162014  0.04111963     0.14200
C517        C  0.70561750  0.96407147  0.04354478     0.86000
C518        C  0.67630598  0.96857433  0.06966043    -0.54200
C519        C  0.65272949  0.00376866  0.06962318     0.09000
C520        C  0.66811993  0.53226825  0.02921894     0.19900
C521        C  0.67844190  0.96589750  0.01616437    -0.54900
C522        C  0.65511985  0.00124897  0.01607334     0.09100
C523        C  0.73097247  0.00761171  0.04484751    -0.54500
C524        C  0.71481900  0.54283961  0.02963359     0.09600
H525        H  0.67307774  0.94443311  0.08596531     0.14200
H526        H  0.64946579  0.56125696  0.02969983    -0.00100
H527        H  0.67600594  0.94125268  0.49704211     0.14500
H528        H  0.76394818  0.01054270  0.04606551     0.14200
C529        C  0.73163950  0.66281143  0.05335253    -0.13800
C530        C  0.76954496  0.67373005  0.04062960     0.08400
C531        C  0.78948069  0.64113597  0.02437170    -0.13800
C532        C  0.77180249  0.59885000  0.02068906    -0.13800
C533        C  0.73371367  0.58800103  0.03321480     0.08400
C534        C  0.71400883  0.62052049  0.04973068    -0.13800
H535        H  0.71570663  0.68691237  0.06637097     0.12300
H536        H  0.81832508  0.64852248  0.01381271     0.12300
H537        H  0.78768645  0.57484058  0.00756111     0.12300
H538        H  0.68517699  0.61321342  0.06031628     0.12300
C539        C  0.72420880  0.84220778  0.04281659    -0.13800
C540        C  0.76711781  0.84079276  0.04234823     0.08400
C541        C  0.79011013  0.88057634  0.04210069    -0.13800
C542        C  0.77122968  0.92027521  0.04254442    -0.13800
C543        C  0.72833080  0.92173069  0.04322232     0.08400
C544        C  0.70531316  0.88191013  0.04312402    -0.13800
H545        H  0.70460726  0.81318333  0.04315615     0.12300
H546        H  0.82317728  0.88090840  0.04172289     0.12300
H547        H  0.79087598  0.94925913  0.04217454     0.12300
H548        H  0.67224413  0.88157418  0.04341691     0.12300
C549        C  0.98637449  0.75089618  0.29920547    -0.16900
C550        C  0.01728926  0.74492944  0.28035986    -0.32100
H551        H  0.95608121  0.75615925  0.29088111     0.12100
H552        H  0.04756023  0.73965909  0.28871826     0.12700
C553        C  0.20861920  0.83546353  0.03312124    -0.13800
C554        C  0.23137203  0.79845078  0.02724588     0.08400
C555        C  0.27278478  0.80523602  0.01973540    -0.13800
C556        C  0.29106385  0.84707619  0.01933604    -0.13800
C557        C  0.26847300  0.88411285  0.02511923     0.08400
C558        C  0.22674977  0.87755817  0.03192822    -0.13000
H559        H  0.17704059  0.83243201  0.03971524     0.12300
H560        H  0.29170742  0.77837421  0.01425456     0.12300
H561        H  0.32340073  0.85047623  0.01463090     0.12300
H562        H  0.20812620  0.90451090  0.03771814     0.12300
C563        C  0.27495030  0.63018085  0.02903700    -0.13800
C564        C  0.23443041  0.63340640  0.03904691     0.08400
C565        C  0.21422030  0.59555060  0.04866740    -0.13800
C566        C  0.23394548  0.55647033  0.04920381    -0.13800
C567        C  0.27426641  0.55313013  0.03900844     0.08400
C568        C  0.29448847  0.59075086  0.02906351    -0.13800
H569        H  0.29138671  0.65731583  0.01985995     0.12300
H570        H  0.18270242  0.59602065  0.05565311     0.12300
H571        H  0.21714279  0.52883370  0.05754909     0.12300
H572        H  0.32496050  0.58965748  0.02015644     0.12300
C573        C  0.52223715  0.45829509  0.27225424    -0.16900
C574        C  0.48988095  0.45517712  0.29017157    -0.32100
H575        H  0.44960885  0.94648121  0.28480747     0.12100
H576        H  0.45926787  0.45114855  0.28094708     0.12700
N577        N  0.58700571  0.50426587  0.61856385    -0.27700
N578        N  0.56579739  0.52588462  0.60018352    -0.35600
C579        C  0.58926275  0.53446362  0.57690442     0.00600
C580        C  0.62665699  0.51640636  0.58043958     0.06600
C581        C  0.62415683  0.49782276  0.60728847    -0.06500
H582        H  0.57839753  0.54921198  0.55778068     0.07300
H583        H  0.64666686  0.47861778  0.61708925     0.08500
Cu584      Cu  0.49559175  0.03160704  0.60650174     0.44200
Cu585      Cu  0.56246631  0.47982567  0.65609738     0.42000
Cu586      Cu  0.43665615  0.97277154  0.65917901     0.43900
N587        N  0.43334419  0.01625429  0.60185432    -0.35100
N588        N  0.41245524  0.99167277  0.61988545    -0.29400
C589        C  0.37591468  0.97966718  0.60755456    -0.05500
C590        C  0.37353518  0.99789455  0.58056795     0.06700
C591        C  0.41036104  0.02127465  0.57794934     0.00500
H592        H  0.35347820  0.95771310  0.61696713     0.08200
H593        H  0.42118856  0.03775219  0.55912408     0.07300
N594        N  0.49031982  0.45711729  0.69400444    -0.36600
N595        N  0.53059174  0.46190396  0.69272231    -0.28800
C596        C  0.54658316  0.45734245  0.71940295    -0.04000
C597        C  0.51506046  0.44950021  0.73863111     0.04600
C598        C  0.47965643  0.44943163  0.72178029     0.02700
H599        H  0.57880152  0.46150229  0.72470779     0.07800
H600        H  0.42272529  0.95306269  0.72920226     0.06600
N601        N  0.42195923  0.97666267  0.94555976    -0.27700
N602        N  0.43959745  0.00232151  0.96657155    -0.35600
C603        C  0.41330596  0.00746515  0.98886855     0.00600
C604        C  0.37751888  0.98318433  0.98208146     0.06600
C605        C  0.38410607  0.96412845  0.95430324    -0.06500
H606        H  0.42039039  0.03918154  0.51062025     0.07300
H607        H  0.36357190  0.94145724  0.94186005     0.08500
Cu608      Cu  0.50161218  0.02019314  0.96755328     0.44200
Cu609      Cu  0.45236616  0.95855847  0.90703516     0.42000
Cu610      Cu  0.55570734  0.47343464  0.90281752     0.43900
N611        N  0.56427473  0.01497525  0.97187937    -0.35100
N612        N  0.58386431  0.49515708  0.94247642    -0.29400
C613        C  0.62180921  0.48814528  0.95212859    -0.05500
C614        C  0.62658783  0.50682417  0.98041957     0.06700
C615        C  0.58971842  0.52509835  0.98656593     0.00500
H616        H  0.64360845  0.46916990  0.93998090     0.08200
H617        H  0.57512770  0.04298944  0.51656550     0.07300
N618        N  0.51747640  0.45822884  0.86656053    -0.36600
N619        N  0.49065586  0.95138243  0.87082897    -0.28800
C620        C  0.47913222  0.94578745  0.84246095    -0.04000
C621        C  0.49285065  0.44671318  0.82127159     0.04600
C622        C  0.52820821  0.45340819  0.83815285     0.02700
H623        H  0.44767420  0.94311018  0.83507636     0.07800
H624        H  0.55933769  0.45625790  0.83044455     0.06600
C625        C  0.21358658  0.68824954  0.53730524     0.86000
C626        C  0.18629715  0.69947277  0.56395452    -0.54200
C627        C  0.16269909  0.73405520  0.56055602     0.09000
C628        C  0.16955602  0.75539622  0.53130411     0.19900
C629        C  0.18415401  0.68362687  0.51089591    -0.54900
C630        C  0.16121281  0.71853462  0.50778347     0.09100
C631        C  0.23902478  0.73101815  0.53337161    -0.54500
C632        C  0.21607332  0.76662456  0.53034632     0.09600
H633        H  0.18453582  0.68059093  0.58326578     0.14200
H634        H  0.15004009  0.78307780  0.52832243    -0.00100
H635        H  0.17677431  0.64063886  0.99625207     0.14500
H636        H  0.27205831  0.73343097  0.53470607     0.14200
C637        C  0.29131824  0.94360270  0.52818092     0.86000
C638        C  0.31880980  0.95211418  0.50158560    -0.54200
C639        C  0.34161429  0.99041748  0.50393035     0.09000
C640        C  0.33807429  0.51374268  0.53714310     0.19900
C641        C  0.31997163  0.94931926  0.55493678    -0.54900
C642        C  0.34219986  0.98789519  0.55728197     0.09100
C643        C  0.26482612  0.98352311  0.53069469    -0.54500
C644        C  0.29155916  0.52069144  0.53793151     0.09600
H645        H  0.32296378  0.91151283  0.98248960     0.14200
H646        H  0.35754499  0.54417195  0.53853581    -0.00100
H647        H  0.32312645  0.92414888  0.57031449     0.14500
H648        H  0.23175676  0.98137944  0.52961999     0.14200
N649        N  0.92442331  0.76430176  0.62612959    -0.27700
N650        N  0.94544548  0.77334877  0.60236732    -0.35600
C651        C  0.91950302  0.77568272  0.57976853     0.00600
C652        C  0.88022360  0.76781253  0.58958437     0.06600
C653        C  0.88423401  0.76097496  0.61914786    -0.06500
H654        H  0.92867041  0.78236135  0.55769818     0.07300
H655        H  0.85993326  0.75327950  0.63425702     0.08500
Cu656      Cu  0.00866526  0.77812129  0.60009844     0.44200
Cu657      Cu  0.95276926  0.75508193  0.66625559     0.42000
Cu658      Cu  0.06376480  0.74417846  0.66151078     0.43900
N659        N  0.07014456  0.76564317  0.59833736    -0.35100
N660        N  0.09003186  0.75028744  0.62036895    -0.29400
C661        C  0.12688357  0.73822930  0.61084889    -0.05500
C662        C  0.13040730  0.74689951  0.58147166     0.06700
C663        C  0.09393307  0.76455382  0.57441731     0.00500
H664        H  0.14884247  0.72291397  0.62404754     0.08200
H665        H  0.08408461  0.77290676  0.55293278     0.07300
N666        N  0.03074312  0.74359526  0.70044317    -0.36600
N667        N  0.99079314  0.74764466  0.70234889    -0.28800
C668        C  0.97993256  0.74719056  0.73079124    -0.04000
C669        C  0.01472641  0.74268723  0.74757485     0.04600
C670        C  0.04619077  0.74045660  0.72753365     0.02700
H671        H  0.94903471  0.75034690  0.73856414     0.07800
H672        H  0.07821852  0.73733331  0.73235299     0.06600
N673        N  0.07908192  0.71315398  0.95155973    -0.27700
N674        N  0.05672427  0.70362892  0.97460188    -0.35600
C675        C  0.08152388  0.69762512  0.99731809     0.00600
C676        C  0.12143218  0.70336010  0.98825876     0.06600
C677        C  0.11896409  0.71331694  0.95914110    -0.06500
H678        H  0.07528493  0.70286391  0.52023922     0.07300
H679        H  0.14412398  0.72179618  0.94494028     0.08500
Cu680      Cu  0.99368558  0.70574173  0.97618008     0.44200
Cu681      Cu  0.05288393  0.72841004  0.91190084     0.42000
Cu682      Cu  0.94425769  0.75336421  0.91727030     0.43900
N683        N  0.93436755  0.72570964  0.97869582    -0.35100
N684        N  0.91689543  0.74663054  0.95800213    -0.29400
C685        C  0.88095677  0.76070290  0.96810783    -0.05500
C686        C  0.87549185  0.74737133  0.99640378     0.06700
C687        C  0.90985927  0.72498285  0.00216332     0.00500
H688        H  0.86051768  0.77941421  0.95586382     0.08200
H689        H  0.92098721  0.71580767  0.52435582     0.07300
N690        N  0.97686609  0.74880508  0.87814776    -0.36600
N691        N  0.01591366  0.73999901  0.87605260    -0.28800
C692        C  0.02641107  0.73796114  0.84749808    -0.04000
C693        C  0.99230104  0.74569458  0.83082975     0.04600
C694        C  0.96161819  0.75237536  0.85104831     0.02700
H695        H  0.05647573  0.73061966  0.83956607     0.07800
H696        H  0.93020613  0.75888493  0.84635516     0.06600
C697        C  0.79195600  0.80142903  0.54285830     0.86000
C698        C  0.81970759  0.80186278  0.57020865    -0.54200
C699        C  0.84291729  0.76661137  0.57131404     0.09000
C700        C  0.83568841  0.73327059  0.54530228     0.19900
C701        C  0.82114419  0.79460748  0.51668037    -0.54900
C702        C  0.84429654  0.75920557  0.51817095     0.09100
C703        C  0.76645447  0.75801448  0.54321882    -0.54500
C704        C  0.78922237  0.72223649  0.54425515     0.09600
H705        H  0.82358429  0.82966458  0.58581768     0.14200
H706        H  0.85439536  0.70450060  0.54665378    -0.00100
H707        H  0.82182983  0.81527138  0.99923016     0.14500
H708        H  0.73354863  0.75472122  0.54141242     0.14200
C709        C  0.70623567  0.96569162  0.54128045     0.86000
C710        C  0.67776034  0.96993756  0.56792649    -0.54200
C711        C  0.65371106  0.00476257  0.56817209     0.09000
C712        C  0.66592982  0.53813753  0.53188897     0.19900
C713        C  0.67793767  0.96687404  0.51436283    -0.54900
C714        C  0.65404873  0.00185408  0.51475322     0.09100
C715        C  0.73097824  0.00958337  0.54193524    -0.54500
C716        C  0.71280978  0.54766989  0.53212946     0.09600
H717        H  0.67542617  0.94591183  0.58435141     0.14200
H718        H  0.64775870  0.56750030  0.53282386    -0.00100
H719        H  0.67681980  0.94034918  0.99878591     0.14500
H720        H  0.76396465  0.01310230  0.54227592     0.14200
C721        C  0.73258839  0.66728849  0.55513594    -0.13800
C722        C  0.77044880  0.67710583  0.54200180     0.08400
C723        C  0.78937368  0.64395262  0.52562084    -0.13800
C724        C  0.77070039  0.60209449  0.52225080    -0.13800
C725        C  0.73269060  0.59233276  0.53528573     0.08400
C726        C  0.71399323  0.62545914  0.55184918    -0.13800
H727        H  0.71743375  0.69192242  0.56822791     0.12300
H728        H  0.81814593  0.65060382  0.51476532     0.12300
H729        H  0.78575924  0.57757585  0.50900361     0.12300
H730        H  0.68523912  0.61896927  0.56274903     0.12300
C731        C  0.72611226  0.84443404  0.54099277    -0.13800
C732        C  0.76906337  0.84345965  0.54156375     0.08400
C733        C  0.79177848  0.88342432  0.54139018    -0.13800
C734        C  0.77251050  0.92288456  0.54112823    -0.13800
C735        C  0.72954215  0.92379402  0.54093199     0.08400
C736        C  0.70689131  0.88380204  0.54061873    -0.13800
H737        H  0.70658375  0.81536160  0.54104643     0.12300
H738        H  0.82486018  0.88409572  0.54171652     0.12300
H739        H  0.79187071  0.95212435  0.54119449     0.12300
H740        H  0.67380237  0.88307700  0.54034598     0.12300
C741        C  0.98774999  0.74614377  0.79849899    -0.16900
C742        C  0.01914904  0.74141543  0.77987436    -0.32100
H743        H  0.95751463  0.75108300  0.78994088     0.12100
H744        H  0.04947978  0.73700278  0.78845700     0.12700
C745        C  0.21214228  0.84827610  0.53763055    -0.13800
C746        C  0.23424606  0.81203612  0.52842968     0.08400
C747        C  0.27432391  0.81964329  0.51834200    -0.13800
C748        C  0.29187565  0.86186329  0.51794759    -0.13800
C749        C  0.26960056  0.89829362  0.52652925     0.08400
C750        C  0.22945425  0.89067986  0.53665833    -0.13000
H751        H  0.18182323  0.84415351  0.54663209     0.12300
H752        H  0.29252704  0.79301090  0.51085508     0.12300
H753        H  0.32338525  0.86595261  0.51115353     0.12300
H754        H  0.21168291  0.91706120  0.54508088     0.12300
C755        C  0.27637295  0.64158666  0.52924076    -0.13800
C756        C  0.23648250  0.64647216  0.54002580     0.08400
C757        C  0.21535868  0.60943229  0.55016422    -0.13800
C758        C  0.23360646  0.56951150  0.55040072    -0.13800
C759        C  0.27323877  0.56444543  0.53938593     0.08400
C760        C  0.29443254  0.60122751  0.52895586    -0.13800
H761        H  0.29327137  0.66822520  0.51978817     0.12300
H762        H  0.18412295  0.61108379  0.55760664     0.12300
H763        H  0.21618847  0.54253147  0.55908752     0.12300
H764        H  0.32449164  0.59872780  0.51951725     0.12300
C765        C  0.51985388  0.44726451  0.77070930    -0.16900
C766        C  0.48800157  0.44396533  0.78898238    -0.32100
H767        H  0.45376592  0.94425228  0.78409275     0.12100
H768        H  0.45710504  0.44101088  0.78020313     0.12700
loop_ 
_geom_bond_atom_site_label_1 
_geom_bond_atom_site_label_2 
_geom_bond_distance 
_geom_bond_site_symmetry_2 
_ccdc_geom_bond_type 
N1            N2   1.322   1_565  A
N1            C5   1.348       .  A
N1           Cu9   2.089       .  S
N2            C3   1.346       .  A
N2         Cu392   2.081       .  S
C3            C4   1.385       .  A
C3            H6   1.077       .  S
C4            C5   1.390   1_545  A
C4          C519   1.489       .  S
C5            H7   1.082       .  S
Cu8          N11   2.082       .  S
Cu8         N386   2.080       .  S
Cu9          N19   2.089       .  S
Cu10         N12   2.090       .  S
Cu10        N402   2.090       .  S
N11          N12   1.323       .  A
N11          C15   1.344       .  A
N12          C13   1.349       .  A
C13          C14   1.389       .  A
C13          H16   1.082       .  S
C14          C15   1.384       .  A
C14          C66   1.488       .  S
C15          H17   1.077       .  S
N18          N19   1.323       .  A
N18          C22   1.345       .  A
N18        Cu394   2.078       .  S
N19          C20   1.348       .  A
C20          C21   1.388       .  A
C20          H23   1.081       .  S
C21          C22   1.382       .  A
C21         C189   1.482       .  S
C22         H408   1.082       .  S
H24         C406   1.081       .  S
N25          N26   1.321       .  A
N25          C29   1.348       .  A
N25         Cu33   2.083       .  S
N26          C27   1.345       .  A
N26         Cu32   2.077       .  S
C27          C28   1.385       .  A
C27         H222   1.077       .  S
C28          C29   1.389       .  A
C28         C255   1.486       .  S
C29          H31   1.082       .  S
H30         C219   1.076   1_554  S
Cu32         N35   2.075       .  S
Cu33         N43   2.083       .  S
Cu34         N36   2.077       .  S
Cu34         N42   2.078       .  S
N35         N420   1.322       .  A
N35         C423   1.343       .  A
N36         N419   1.322   1_565  A
N36          C37   1.347       .  A
C37          C38   1.386   1_565  A
C37          H40   1.082       .  S
C38          C39   1.384       .  A
C38         C714   1.483       .  S
C39         N419   1.344       .  A
C39         H617   1.077       .  S
H41         C615   1.075   1_554  S
N42         N427   1.323       .  A
N42          C46   1.345       .  A
N43         N426   1.323       .  A
N43          C44   1.346       .  A
C44         C429   1.383       .  A
C44          H47   1.082       .  S
C45          C46   1.383       .  A
C45         C428   1.388       .  A
C45         C190   1.482       .  S
C46          H48   1.082       .  S
C49          C50   1.546       .  S
C49          C55   1.544       .  S
C49          C53   1.538       .  S
C49         C180   1.535       .  S
C50          H57   1.085       .  S
C50          C51   1.368       .  D
C51          C86   1.481       .  S
C51          C52   1.535       .  S
C52          C56   1.550       .  S
C52          C54   1.534       .  S
C52          H58   1.108       .  S
C53         H251   1.087   1_554  S
C53          C54   1.361       .  D
C54         C292   1.474   1_554  S
C55          H60   1.082       .  S
C55          C56   1.375       .  D
C56         C170   1.507       .  S
H59         C245   1.086       .  S
C61          C62   1.542       .  S
C61          C67   1.542       .  S
C61          C65   1.539       .  S
C61         C173   1.539       .  S
C62         H261   1.085   1_554  S
C62          C63   1.366       .  D
C63         C220   1.484   1_554  S
C63         C448   1.540       .  S
C64          C68   1.549       .  S
C64         C447   1.541   1_545  S
C64         C450   1.537   1_545  S
C64          H70   1.108       .  S
C65          H71   1.086       .  S
C65          C66   1.366       .  D
C66         C448   1.541       .  S
C67          H72   1.081       .  S
C67         C452   1.374       .  D
C68         C183   1.502       .  S
C68         C451   1.375   1_545  D
H69         C254   1.086       .  S
N73          N74   1.323       .  A
N73          C77   1.354       .  A
N73         Cu81   2.107       .  S
N74          C75   1.344       .  A
N74         Cu80   2.074   1_655  S
C75          C76   1.379       .  A
C75          H78   1.081       .  S
C76          C77   1.390       .  A
C76         C123   1.482       .  S
C77          H79   1.082       .  S
Cu80         N83   2.073       .  S
Cu81         N91   2.107       .  S
Cu82         N84   2.070       .  S
Cu82         N90   2.071       .  S
N83          N84   1.320       .  A
N83          C87   1.343       .  A
N84          C85   1.347       .  A
C85          C86   1.386       .  A
C85          H88   1.082       .  S
C86          C87   1.385       .  A
C87          H89   1.081       .  S
N90          N91   1.325   1_455  A
N90          C94   1.344       .  A
N91          C92   1.350       .  A
C92          C93   1.392   1_655  A
C92          H95   1.081       .  S
C93          C94   1.379       .  A
C93         C166   1.484       .  S
C94          H96   1.082       .  S
N97          N98   1.323       .  A
N97         C101   1.354       .  A
N97        Cu105   2.105       .  S
N98          C99   1.341       .  A
N98        Cu104   2.063   1_455  S
C99         C100   1.377       .  A
C99         H294   1.080       .  S
C100        C101   1.390       .  A
C100        C246   1.478       .  S
C101        H103   1.082       .  S
H102        C291   1.081   1_554  S
Cu104       N107   2.061       .  S
Cu105       N115   2.107       .  S
Cu106       N108   2.070       .  S
Cu106       N114   2.072       .  S
N107        N108   1.319       .  A
N107        C111   1.341       .  A
N108        C109   1.347       .  A
C109        C110   1.387       .  A
C109        H112   1.082       .  S
C110        C111   1.381       .  A
C110        C318   1.475       .  S
C111        H305   1.081       .  S
H113        C303   1.081   1_554  S
N114        N115   1.325   1_655  A
N114        C118   1.343       .  A
N115        C116   1.351       .  A
C116        C117   1.392   1_455  A
C116        H119   1.081       .  S
C117        C118   1.378       .  A
C117        C165   1.482       .  S
C118        H120   1.082       .  S
C121        C122   1.543       .  S
C121        C127   1.548       .  S
C121        C125   1.544       .  S
C121        C156   1.539       .  S
C122        H129   1.086       .  S
C122        C123   1.363       .  D
C123        C124   1.540       .  S
C124        C128   1.549       .  S
C124        C126   1.541       .  S
C124        H130   1.110       .  S
C125        H323   1.086   1_554  S
C125        C126   1.365       .  D
C126        C302   1.486   1_554  S
C127        H132   1.081       .  S
C127        C128   1.371       .  D
C128        C146   1.500       .  S
H131        C317   1.086       .  S
C133        C134   1.540       .  S
C133        C139   1.547       .  S
C133        C137   1.540       .  S
C133        C159   1.537       .  S
C134        H141   1.086       .  S
C134        C135   1.363       .  D
C135        C388   1.482       .  S
C135        C520   1.536       .  S
C136        C140   1.552       .  S
C136        C519   1.546       .  S
C136        C522   1.543       .  S
C136        H142   1.110       .  S
C137        H335   1.086   1_554  S
C137        C138   1.366       .  D
C138        C614   1.487   1_554  S
C138        C520   1.543       .  S
C139        H144   1.082       .  S
C139        C524   1.374       .  D
C140        C149   1.501       .  S
C140        C523   1.371       .  D
H143        C329   1.086       .  S
C145        C146   1.411       .  A
C145        C150   1.407       .  A
C145        H151   1.082       .  S
C146        C147   1.404       .  A
C147        C148   1.401       .  A
C147        H152   1.083       .  S
C148        C149   1.410       .  A
C148        H153   1.082       .  S
C149        C150   1.406       .  A
C150        H154   1.083       .  S
C155        C156   1.409       .  A
C155        C160   1.400       .  A
C155        H161   1.077       .  S
C156        C157   1.411       .  A
C157        C158   1.404       .  A
C157        H162   1.083       .  S
C158        C159   1.408       .  A
C158        H163   1.078       .  S
C159        C160   1.410       .  A
C160        H164   1.083       .  S
C165        H167   1.085       .  S
C165        C166   1.342   1_655  D
C166        H168   1.086       .  S
C169        C170   1.409       .  A
C169        C174   1.404       .  A
C169        H175   1.080       .  S
C170        C171   1.409       .  A
C171        C172   1.401       .  A
C171        H176   1.081       .  S
C172        C173   1.409       .  A
C172        H177   1.083       .  S
C173        C174   1.411       .  A
C174        H178   1.079       .  S
C179        C180   1.410       .  A
C179        C184   1.404       .  A
C179        H185   1.080       .  S
C180        C181   1.409       .  A
C181        C182   1.400       .  A
C181        H186   1.082       .  S
C182        C183   1.407       .  A
C182        H187   1.081       .  S
C183        C184   1.407       .  A
C184        H188   1.081       .  S
C189        H575   1.085       .  S
C189        C190   1.345       .  D
C190        H192   1.085       .  S
H191        C573   1.085       .  S
N193        N194   1.322   1_565  A
N193        C197   1.347       .  A
N193       Cu201   2.083       .  S
N194        C195   1.344       .  A
N194       Cu584   2.079       .  S
C195        C196   1.384       .  A
C195        H198   1.077       .  S
C196        C197   1.388   1_545  A
C196        C711   1.485       .  S
C197        H199   1.082       .  S
Cu200       N578   2.080       .  S
Cu200       N203   2.081       .  S
Cu201       N211   2.083       .  S
Cu202       N204   2.090       .  S
Cu202       N594   2.091       .  S
N203        N204   1.323       .  A
N203        C207   1.344       .  A
N204        C205   1.349       .  A
C205        C206   1.390       .  A
C205        H208   1.082       .  S
C206        C207   1.384       .  A
C206        C258   1.487       .  S
C207        H209   1.077       .  S
N210        N211   1.323       .  A
N210        C214   1.347       .  A
N210       Cu586   2.087       .  S
N211        C212   1.348       .  A
C212        C213   1.388       .  A
C212        H215   1.081       .  S
C213        C214   1.385       .  A
C213        C381   1.485       .  S
C214        H600   1.082       .  S
H216        C598   1.081       .  S
N217        N218   1.320       .  A
N217        C221   1.346       .  A
N217       Cu225   2.070       .  S
N218        C219   1.345       .  A
N218       Cu224   2.081       .  S
C219        C220   1.386       .  A
C220        C221   1.386       .  A
C221        H223   1.082       .  S
Cu224       N227   2.081       .  S
Cu225       N235   2.070       .  S
Cu226       N228   2.090       .  S
Cu226       N234   2.090       .  S
N227        N612   1.322       .  A
N227        C615   1.343       .  A
N228        N611   1.322   1_565  A
N228        C229   1.348       .  A
C229        C230   1.390   1_565  A
C229        H232   1.082       .  S
C230        C231   1.383       .  A
C230        C522   1.486   1_556  S
C231        N611   1.345       .  A
C231        H425   1.077   1_556  S
H233        C423   1.076       .  S
N234        N619   1.324       .  A
N234        C238   1.347       .  A
N235        N618   1.323       .  A
N235        C236   1.344       .  A
C236        C621   1.380       .  A
C236        H239   1.082       .  S
C237        C620   1.388       .  A
C237        C238   1.385       .  A
C237        C382   1.486       .  S
C238        H240   1.082       .  S
C241        C242   1.549       .  S
C241        C247   1.541       .  S
C241        C245   1.539       .  S
C241        C372   1.538       .  S
C242        H249   1.084       .  S
C242        C243   1.367       .  D
C243        C278   1.490       .  S
C243        C244   1.542       .  S
C244        C248   1.552       .  S
C244        C246   1.538       .  S
C244        H250   1.108       .  S
C245        C246   1.362       .  D
C247        H252   1.083       .  S
C247        C248   1.375       .  D
C248        C362   1.509       .  S
C253        C254   1.543       .  S
C253        C259   1.543       .  S
C253        C257   1.539       .  S
C253        C365   1.540       .  S
C254        C255   1.366       .  D
C255        C640   1.541       .  S
C256        C639   1.542   1_545  S
C256        C260   1.551       .  S
C256        C642   1.541   1_545  S
C256        H262   1.109       .  S
C257        H263   1.086       .  S
C257        C258   1.366       .  D
C258        C640   1.541       .  S
C259        H264   1.081       .  S
C259        C644   1.376       .  D
C260        C375   1.500       .  S
C260        C643   1.375   1_545  D
N265        N266   1.321       .  A
N265        C269   1.346       .  A
N265       Cu273   2.065       .  S
N266        C267   1.343       .  A
N266       Cu272   2.072       .  S
C267        C268   1.381       .  A
C267        H270   1.081       .  S
C268        C269   1.379       .  A
C268        C315   1.467       .  S
C269        H271   1.082       .  S
Cu272       N275   2.071   1_655  S
Cu273       N283   2.067       .  S
Cu274       N276   2.112       .  S
Cu274       N282   2.113       .  S
N275        N276   1.323       .  A
N275        C279   1.344       .  A
N276        C277   1.352       .  A
C277        C278   1.393       .  A
C277        H280   1.082       .  S
C278        C279   1.382       .  A
C279        H281   1.081       .  S
N282        N283   1.324   1_455  A
N282        C286   1.352       .  A
N283        C284   1.344       .  A
C284        C285   1.379       .  A
C284        H287   1.082       .  S
C285        C286   1.394   1_655  A
C285        C358   1.487       .  S
C286        H288   1.081       .  S
N289        N290   1.320       .  A
N289        C293   1.349       .  A
N289       Cu297   2.075       .  S
N290        C291   1.343       .  A
N290       Cu296   2.069   1_455  S
C291        C292   1.381       .  A
C292        C293   1.384       .  A
C293        H295   1.082       .  S
Cu296       N299   2.067       .  S
Cu297       N307   2.077       .  S
Cu298       N300   2.113       .  S
Cu298       N306   2.114       .  S
N299        N300   1.323       .  A
N299        C303   1.342       .  A
N300        C301   1.353       .  A
C301        C302   1.393       .  A
C301        H304   1.082       .  S
C302        C303   1.379       .  A
N306        N307   1.325   1_655  A
N306        C310   1.353       .  A
N307        C308   1.344       .  A
C308        C309   1.379       .  A
C308        H311   1.082       .  S
C309        C310   1.394   1_455  A
C309        C357   1.487       .  S
C310        H312   1.081       .  S
C313        C314   1.538       .  S
C313        C319   1.548       .  S
C313        C317   1.541       .  S
C313        C348   1.527       .  S
C314        H321   1.087       .  S
C314        C315   1.357       .  D
C315        C316   1.531       .  S
C316        C320   1.545       .  S
C316        C318   1.534       .  S
C316        H322   1.110       .  S
C317        C318   1.364       .  D
C319        H324   1.082       .  S
C319        C320   1.372       .  D
C320        C338   1.493       .  S
C325        C326   1.537       .  S
C325        C331   1.545       .  S
C325        C329   1.535       .  S
C325        C351   1.528       .  S
C326        H333   1.086       .  S
C326        C327   1.362       .  D
C327        C580   1.480       .  S
C327        C712   1.537       .  S
C328        C711   1.540       .  S
C328        C332   1.546       .  S
C328        C714   1.538       .  S
C328        H334   1.109       .  S
C329        C330   1.363       .  D
C330        C422   1.481       .  S
C330        C712   1.541       .  S
C331        H336   1.081       .  S
C331        C716   1.373       .  D
C332        C341   1.494       .  S
C332        C715   1.371       .  D
C337        C338   1.408       .  A
C337        C342   1.404       .  A
C337        H343   1.083       .  S
C338        C339   1.404       .  A
C339        C340   1.398       .  A
C339        H344   1.083       .  S
C340        C341   1.407       .  A
C340        H345   1.082       .  S
C341        C342   1.406       .  A
C342        H346   1.082       .  S
C347        C348   1.405       .  A
C347        C352   1.398       .  A
C347        H353   1.078       .  S
C348        C349   1.411       .  A
C349        C350   1.397       .  A
C349        H354   1.083       .  S
C350        C351   1.405       .  A
C350        H355   1.078       .  S
C351        C352   1.411       .  A
C352        H356   1.083       .  S
C357        H359   1.086       .  S
C357        C358   1.343   1_455  D
C358        H360   1.086       .  S
C361        C362   1.409       .  A
C361        C366   1.407       .  A
C361        H367   1.081       .  S
C362        C363   1.409       .  A
C363        C364   1.400       .  A
C363        H368   1.081       .  S
C364        C365   1.408       .  A
C364        H369   1.083       .  S
C365        C366   1.412       .  A
C366        H370   1.079       .  S
C371        C372   1.412       .  A
C371        C376   1.405       .  A
C371        H377   1.081       .  S
C372        C373   1.411       .  A
C373        C374   1.401       .  A
C373        H378   1.081       .  S
C374        C375   1.407       .  A
C374        H379   1.082       .  S
C375        C376   1.405       .  A
C376        H380   1.082       .  S
C381        H767   1.085       .  S
C381        C382   1.347       .  D
C382        H384   1.085       .  S
H383        C765   1.085       .  S
N385        N386   1.321       .  A
N385        C389   1.345       .  A
N385       Cu393   2.070       .  S
N386        C387   1.345       .  A
C387        C388   1.385       .  A
C387        H390   1.075       .  S
C388        C389   1.385       .  A
C389        H391   1.082       .  S
Cu392       N395   2.079       .  S
Cu393       N403   2.072       .  S
Cu394       N396   2.077       .  S
N395        N396   1.321   1_545  A
N395        C399   1.343       .  A
N396        C397   1.347       .  A
C397        C398   1.387       .  A
C397        H400   1.082       .  S
C398        C399   1.383   1_565  A
C398        C450   1.483       .  S
C399        H401   1.077       .  S
N402        N403   1.322       .  A
N402        C406   1.349       .  A
N403        C404   1.344       .  A
C404        C405   1.382       .  A
C404        H407   1.082       .  S
C405        C406   1.390       .  A
C405        C573   1.482       .  S
N409        N410   1.321   1_565  A
N409        C413   1.348       .  A
N409       Cu417   2.084       .  S
N410        C411   1.345       .  A
N410       Cu416   2.080       .  S
C411        C412   1.384       .  A
C411        H606   1.076       .  S
C412        C413   1.389   1_545  A
C412        C639   1.486   1_545  S
C413        H415   1.082       .  S
H414        C603   1.077   1_554  S
Cu416       N419   2.080       .  S
Cu417       N427   2.084       .  S
Cu418       N420   2.082       .  S
Cu418       N426   2.083       .  S
N420        C421   1.348       .  A
C421        C422   1.388       .  A
C421        H424   1.082       .  S
C422        C423   1.381       .  A
N426        C430   1.347       .  A
N427        C428   1.347       .  A
C428        H431   1.081       .  S
C429        C430   1.389       .  A
C429        C574   1.483       .  S
C430        H432   1.081       .  S
C433        C434   1.547       .  S
C433        C439   1.543       .  S
C433        C437   1.539       .  S
C433        C564   1.539       .  S
C434        H441   1.086       .  S
C434        C435   1.368       .  D
C435        C470   1.485       .  S
C435        C436   1.539       .  S
C436        C440   1.550       .  S
C436        C438   1.533       .  S
C436        H442   1.107       .  S
C437        H635   1.086   1_554  S
C437        C438   1.361       .  D
C438        C676   1.474   1_554  S
C439        H444   1.080       .  S
C439        C440   1.376       .  D
C440        C554   1.510       .  S
H443        C629   1.087       .  S
C445        C446   1.543       .  S
C445        C451   1.544       .  S
C445        C449   1.539       .  S
C445        C557   1.537       .  S
C446        H645   1.086   1_554  S
C446        C447   1.366       .  D
C447        C604   1.487   1_554  S
C448        C452   1.552       .  S
C448        H454   1.107       .  S
C449        H455   1.086       .  S
C449        C450   1.364       .  D
C451        H456   1.082       .  S
C452        C567   1.506       .  S
H453        C638   1.085       .  S
N457        N458   1.323       .  A
N457        C461   1.352       .  A
N457       Cu465   2.090       .  S
N458        C459   1.341       .  A
N458       Cu464   2.070   1_655  S
C459        C460   1.378       .  A
C459        H462   1.080       .  S
C460        C461   1.386       .  A
C460        C507   1.475       .  S
C461        H463   1.082       .  S
Cu464       N467   2.069       .  S
Cu465       N475   2.092       .  S
Cu466       N468   2.089       .  S
Cu466       N474   2.089       .  S
N467        N468   1.320       .  A
N467        C471   1.343       .  A
N468        C469   1.350       .  A
C469        C470   1.390       .  A
C469        H472   1.082       .  S
C470        C471   1.384       .  A
C471        H473   1.081       .  S
N474        N475   1.325   1_455  A
N474        C478   1.345       .  A
N475        C476   1.349       .  A
C476        C477   1.388   1_655  A
C476        H479   1.081       .  S
C477        C478   1.382       .  A
C477        C550   1.483       .  S
C478        H480   1.082       .  S
N481        N482   1.323       .  A
N481        C485   1.351       .  A
N481       Cu489   2.093       .  S
N482        C483   1.342       .  A
N482       Cu488   2.068   1_455  S
C483        C484   1.377       .  A
C483        H678   1.082       .  S
C484        C485   1.386       .  A
C484        C630   1.473       .  S
C485        H487   1.082       .  S
H486        C675   1.082   1_554  S
Cu488       N491   2.068       .  S
Cu489       N499   2.094       .  S
Cu490       N492   2.076       .  S
Cu490       N498   2.078       .  S
N491        N492   1.320       .  A
N491        C495   1.343       .  A
N492        C493   1.348       .  A
C493        C494   1.386       .  A
C493        H496   1.082       .  S
C494        C495   1.384       .  A
C494        C702   1.479       .  S
C495        H689   1.081       .  S
H497        C687   1.081       .  S
N498        N499   1.324   1_655  A
N498        C502   1.345       .  A
N499        C500   1.348       .  A
C500        C501   1.389   1_455  A
C500        H503   1.081       .  S
C501        C502   1.382       .  A
C501        C549   1.484       .  S
C502        H504   1.082       .  S
C505        C506   1.541       .  S
C505        C511   1.547       .  S
C505        C509   1.548       .  S
C505        C540   1.537       .  S
C506        H513   1.087       .  S
C506        C507   1.362       .  D
C507        C508   1.537       .  S
C508        C512   1.544       .  S
C508        C510   1.534       .  S
C508        H514   1.109       .  S
C509        H707   1.086   1_554  S
C509        C510   1.368       .  D
C510        C686   1.484   1_554  S
C511        H516   1.081       .  S
C511        C512   1.371       .  D
C512        C530   1.496       .  S
H515        C701   1.086       .  S
C517        C518   1.539       .  S
C517        C523   1.543   1_565  S
C517        C521   1.538       .  S
C517        C543   1.538       .  S
C518        H525   1.086       .  S
C518        C519   1.366   1_565  D
C520        C524   1.548       .  S
C520        H526   1.109       .  S
C521        H719   1.086   1_554  S
C521        C522   1.365   1_565  D
C523        H528   1.081       .  S
C524        C533   1.498       .  S
H527        C713   1.086       .  S
C529        C530   1.407       .  A
C529        C534   1.402       .  A
C529        H535   1.083       .  S
C530        C531   1.406       .  A
C531        C532   1.403       .  A
C531        H536   1.083       .  S
C532        C533   1.408       .  A
C532        H537   1.082       .  S
C533        C534   1.407       .  A
C534        H538   1.082       .  S
C539        C540   1.409       .  A
C539        C544   1.402       .  A
C539        H545   1.077       .  S
C540        C541   1.409       .  A
C541        C542   1.401       .  A
C541        H546   1.083       .  S
C542        C543   1.409       .  A
C542        H547   1.077       .  S
C543        C544   1.410       .  A
C544        H548   1.083       .  S
C549        H551   1.085       .  S
C549        C550   1.345   1_655  D
C550        H552   1.085       .  S
C553        C554   1.411       .  A
C553        C558   1.406       .  A
C553        H559   1.080       .  S
C554        C555   1.409       .  A
C555        C556   1.398       .  A
C555        H560   1.080       .  S
C556        C557   1.408       .  A
C556        H561   1.083       .  S
C557        C558   1.410       .  A
C558        H562   1.079       .  S
C563        C564   1.412       .  A
C563        C568   1.405       .  A
C563        H569   1.079       .  S
C564        C565   1.408       .  A
C565        C566   1.400       .  A
C565        H570   1.083       .  S
C566        C567   1.409       .  A
C566        H571   1.081       .  S
C567        C568   1.408       .  A
C568        H572   1.081       .  S
C573        C574   1.345       .  D
C574        H576   1.085       .  S
N577        N578   1.320       .  A
N577        C581   1.343       .  A
N577       Cu585   2.062       .  S
N578        C579   1.345       .  A
C579        C580   1.385       .  A
C579        H582   1.076       .  S
C580        C581   1.385       .  A
C581        H583   1.082       .  S
Cu584       N587   2.078       .  S
Cu585       N595   2.063       .  S
Cu586       N588   2.086       .  S
N587        N588   1.322   1_545  A
N587        C591   1.345       .  A
N588        C589   1.347       .  A
C589        C590   1.388       .  A
C589        H592   1.082       .  S
C590        C591   1.384   1_565  A
C590        C642   1.484       .  S
C591        H593   1.076       .  S
N594        N595   1.322       .  A
N594        C598   1.348       .  A
N595        C596   1.343       .  A
C596        C597   1.379       .  A
C596        H599   1.082       .  S
C597        C598   1.390       .  A
C597        C765   1.479       .  S
N601        N602   1.321   1_565  A
N601        C605   1.349       .  A
N601       Cu609   2.088       .  S
N602        C603   1.344       .  A
N602       Cu608   2.078       .  S
C603        C604   1.384   1_545  A
C604        C605   1.390       .  A
C605        H607   1.082       .  S
Cu608       N611   2.078       .  S
Cu609       N619   2.088       .  S
Cu610       N612   2.090       .  S
Cu610       N618   2.090       .  S
N612        C613   1.350       .  A
C613        C614   1.390       .  A
C613        H616   1.082       .  S
C614        C615   1.383       .  A
N618        C622   1.348       .  A
N619        C620   1.348       .  A
C620        H623   1.081       .  S
C621        C622   1.390       .  A
C621        C766   1.480       .  S
C622        H624   1.081       .  S
C625        C626   1.547       .  S
C625        C631   1.546       .  S
C625        C629   1.538       .  S
C625        C756   1.537       .  S
C626        H633   1.085       .  S
C626        C627   1.367       .  D
C627        C662   1.482       .  S
C627        C628   1.536       .  S
C628        C632   1.547       .  S
C628        C630   1.534       .  S
C628        H634   1.108       .  S
C629        C630   1.360       .  D
C631        H636   1.083       .  S
C631        C632   1.377       .  D
C632        C746   1.504       .  S
C637        C638   1.542       .  S
C637        C643   1.544       .  S
C637        C641   1.535       .  S
C637        C749   1.536       .  S
C638        C639   1.366       .  D
C640        C644   1.550       .  S
C640        H646   1.108       .  S
C641        H647   1.086       .  S
C641        C642   1.364       .  D
C643        H648   1.083       .  S
C644        C759   1.506       .  S
N649        N650   1.323       .  A
N649        C653   1.351       .  A
N649       Cu657   2.093       .  S
N650        C651   1.343       .  A
N650       Cu656   2.073   1_655  S
C651        C652   1.379       .  A
C651        H654   1.081       .  S
C652        C653   1.386       .  A
C652        C699   1.476       .  S
C653        H655   1.082       .  S
Cu656       N659   2.072       .  S
Cu657       N667   2.094       .  S
Cu658       N660   2.084       .  S
Cu658       N666   2.085       .  S
N659        N660   1.321       .  A
N659        C663   1.344       .  A
N660        C661   1.348       .  A
C661        C662   1.388       .  A
C661        H664   1.082       .  S
C662        C663   1.384       .  A
C663        H665   1.081       .  S
N666        N667   1.324   1_455  A
N666        C670   1.346       .  A
N667        C668   1.349       .  A
C668        C669   1.389   1_655  A
C668        H671   1.081       .  S
C669        C670   1.383       .  A
C669        C742   1.485       .  S
C670        H672   1.082       .  S
N673        N674   1.323       .  A
N673        C677   1.351       .  A
N673       Cu681   2.091       .  S
N674        C675   1.343       .  A
N674       Cu680   2.072   1_455  S
C675        C676   1.379       .  A
C676        C677   1.385       .  A
C677        H679   1.082       .  S
Cu680       N683   2.071       .  S
Cu681       N691   2.092       .  S
Cu682       N684   2.085       .  S
Cu682       N690   2.087       .  S
N683        N684   1.321       .  A
N683        C687   1.342   1_556  A
N684        C685   1.350       .  A
C685        C686   1.388       .  A
C685        H688   1.082       .  S
C686        C687   1.384   1_556  A
N690        N691   1.324   1_655  A
N690        C694   1.346       .  A
N691        C692   1.349       .  A
C692        C693   1.389   1_455  A
C692        H695   1.081       .  S
C693        C694   1.383       .  A
C693        C741   1.485       .  S
C694        H696   1.082       .  S
C697        C698   1.542       .  S
C697        C703   1.545       .  S
C697        C701   1.546       .  S
C697        C732   1.537       .  S
C698        H705   1.086       .  S
C698        C699   1.363       .  D
C699        C700   1.537       .  S
C700        C704   1.543       .  S
C700        C702   1.534       .  S
C700        H706   1.110       .  S
C701        C702   1.368       .  D
C703        H708   1.080       .  S
C703        C704   1.368       .  D
C704        C722   1.493       .  S
C709        C710   1.540       .  S
C709        C715   1.543   1_565  S
C709        C713   1.541       .  S
C709        C735   1.536       .  S
C710        H717   1.086       .  S
C710        C711   1.366   1_565  D
C712        C716   1.549       .  S
C712        H718   1.110       .  S
C713        C714   1.366   1_565  D
C715        H720   1.081       .  S
C716        C725   1.495       .  S
C721        C722   1.407       .  A
C721        C726   1.400       .  A
C721        H727   1.083       .  S
C722        C723   1.405       .  A
C723        C724   1.402       .  A
C723        H728   1.083       .  S
C724        C725   1.409       .  A
C724        H729   1.082       .  S
C725        C726   1.405       .  A
C726        H730   1.082       .  S
C731        C732   1.410       .  A
C731        C736   1.399       .  A
C731        H737   1.076       .  S
C732        C733   1.409       .  A
C733        C734   1.402       .  A
C733        H738   1.083       .  S
C734        C735   1.410       .  A
C734        H739   1.077       .  S
C735        C736   1.408       .  A
C736        H740   1.083       .  S
C741        H743   1.085       .  S
C741        C742   1.346   1_655  D
C742        H744   1.085       .  S
C745        C746   1.410       .  A
C745        C750   1.404       .  A
C745        H751   1.081       .  S
C746        C747   1.406       .  A
C747        C748   1.400       .  A
C747        H752   1.081       .  S
C748        C749   1.411       .  A
C748        H753   1.082       .  S
C749        C750   1.409       .  A
C750        H754   1.080       .  S
C755        C756   1.411       .  A
C755        C760   1.407       .  A
C755        H761   1.080       .  S
C756        C757   1.409       .  A
C757        C758   1.399       .  A
C757        H762   1.082       .  S
C758        C759   1.407       .  A
C758        H763   1.081       .  S
C759        C760   1.409       .  A
C760        H764   1.081       .  S
C765        C766   1.342       .  D
C766        H768   1.085       .  S
