geometry optimzed in LAMMPS
_audit_creation_date              2020-11-30 
_audit_creation_method            'lammps2cif' 
_symmetry_space_group_name_H-M    'P1' 
_symmetry_Int_Tables_number       1 
_symmetry_cell_setting            triclinic 
loop_ 
_symmetry_equiv_pos_as_xyz 
  x,y,z 
_cell_length_a                    32.57632691 
_cell_length_b                    32.136790076333554 
_cell_length_c                    32.76932252217321 
_cell_angle_alpha                 90.22602587755061 
_cell_angle_beta                  89.40200213053245 
_cell_angle_gamma                 90.28945415454444 
loop_ 
_atom_site_label 
_atom_site_type_symbol 
_atom_site_fract_x 
_atom_site_fract_y 
_atom_site_fract_z 
_atom_site_charge 
N1          N  0.46034860  0.23085143  0.11478470    -0.01200
C2          C  0.49509094  0.21023440  0.12564950     0.01400
C3          C  0.50766048  0.18400549  0.09448500    -0.21500
C4          C  0.48064054  0.18872231  0.06330067    -0.21700
C5          C  0.45197140  0.21766134  0.07607193     0.01300
H6          H  0.53593756  0.16636425  0.09296134     0.15000
H7          H  0.48331516  0.17483498  0.03336196     0.15100
N8          N  0.37466130  0.20994834  0.23351907    -0.01200
C9          C  0.35301434  0.22298713  0.26692607     0.01400
C10         C  0.32332531  0.19384218  0.27725248    -0.21500
C11         C  0.32753226  0.16133750  0.25049465    -0.21700
C12         C  0.35948533  0.17157004  0.22430833     0.01300
H13         H  0.30453991  0.19359420  0.30456439     0.15000
H14         H  0.31206714  0.13165397  0.25278505     0.15100
N15         N  0.34364356  0.32032423  0.13901220    -0.01200
C16         C  0.35670651  0.35557238  0.11994005     0.01400
C17         C  0.33001494  0.36671901  0.08950786    -0.21500
C18         C  0.29899636  0.33802403  0.08995630    -0.21700
C19         C  0.30758398  0.30997919  0.12062283     0.01300
H20         H  0.33062681  0.39510446  0.07205823     0.15000
H21         H  0.27111279  0.33992252  0.07260564     0.15100
C22         C  0.38916383  0.23799278  0.20223605     0.82500
N23         N  0.42226244  0.22758403  0.17865044    -0.75800
C24         C  0.43068019  0.24808582  0.14316340     0.84900
N25         N  0.40528345  0.27914770  0.13135002    -0.75800
C26         C  0.37219547  0.29029643  0.15467246     0.85000
N27         N  0.36407770  0.26931989  0.18982089    -0.77500
Zn28       Zn  0.89834656  0.80276136  0.64962435     1.49700
Zn29       Zn  0.96871695  0.73322487  0.65024958     1.49400
Zn30       Zn  0.96632190  0.80399677  0.72106396     1.49100
Zn31       Zn  0.89769991  0.73260088  0.72037151     1.49500
O32         O  0.93276349  0.76807057  0.68521153    -1.81900
O33         O  0.90759591  0.78889480  0.58886771    -0.72500
O34         O  0.02904367  0.74719954  0.66065440    -0.72300
O35         O  0.95611232  0.86474730  0.70890681    -0.71800
O36         O  0.95781386  0.74252770  0.58941678    -0.72500
O37         O  0.91116334  0.86429060  0.65848307    -0.72100
O38         O  0.02707870  0.79387361  0.71088696    -0.72700
O39         O  0.90943108  0.74200746  0.78065768    -0.72100
O40         O  0.95862924  0.67147610  0.66235088    -0.72900
O41         O  0.95476296  0.79383086  0.78176175    -0.72200
O42         O  0.90925912  0.67153823  0.70977630    -0.72700
O43         O  0.83693336  0.74401779  0.71032840    -0.72600
O44         O  0.83777439  0.79382258  0.66337249    -0.72400
C45         C  0.93251087  0.76493145  0.56980763     0.79400
C46         C  0.04731607  0.77136819  0.68571727     0.79900
C47         C  0.93416464  0.88410755  0.68326632     0.78800
C48         C  0.93232333  0.76717403  0.80033839     0.79200
C49         C  0.93422762  0.65202510  0.68647877     0.80300
C50         C  0.81809048  0.76948845  0.68737063     0.79400
N51         N  0.46398001  0.82573807  0.73536698    -0.01200
C52         C  0.48647237  0.81511597  0.76857144     0.01400
C53         C  0.51723584  0.84430153  0.77473353    -0.21500
C54         C  0.51300261  0.87421927  0.74549842    -0.21700
C55         C  0.47986096  0.86259675  0.72210141     0.01300
H56         H  0.53734243  0.84650152  0.80073675     0.15000
H57         H  0.52942782  0.90347173  0.74423963     0.15100
N58         N  0.49012827  0.71188101  0.64257538    -0.01200
C59         C  0.47773978  0.67773061  0.62125132     0.01400
C60         C  0.50765213  0.66569952  0.59353641    -0.21500
C61         C  0.53979442  0.69270911  0.59806902    -0.21700
C62         C  0.52869109  0.72074583  0.62833698     0.01300
H63         H  0.50787153  0.63774061  0.57513768     0.15000
H64         H  0.56944186  0.69000787  0.58330438     0.15100
N65         N  0.37520892  0.80223320  0.62262437    -0.01200
C66         C  0.34287498  0.82616598  0.63468381     0.01400
C67         C  0.33793606  0.85868182  0.60763666    -0.21500
C68         C  0.36693858  0.85387509  0.57748686    -0.21700
C69         C  0.38890821  0.81858354  0.58671245    -0.00700
H70         H  0.31240437  0.88009275  0.60659889     0.15000
H71         H  0.36790953  0.87070892  0.54894393     0.15100
C72         C  0.40317205  0.78376418  0.65110358     0.82500
N73         N  0.41325110  0.80542368  0.68546716    -0.75800
C74         C  0.44726944  0.79574077  0.70717869     0.84900
N75         N  0.47163752  0.76389569  0.69394325    -0.75800
C76         C  0.46176079  0.74149341  0.66010255     0.85000
N77         N  0.42761274  0.75183097  0.63879323    -0.77500
Zn78       Zn  0.37109316  0.30781243  0.70811960     1.49700
Zn79       Zn  0.44059728  0.30341137  0.63671202     1.49400
Zn80       Zn  0.43946579  0.23648955  0.70863266     1.49100
Zn81       Zn  0.36938068  0.23339609  0.64010853     1.49500
O82         O  0.40491146  0.27031188  0.67338666    -1.81900
O83         O  0.38271594  0.36901039  0.69461773    -0.72500
O84         O  0.50151929  0.29430276  0.64791269    -0.72300
O85         O  0.42650298  0.24762256  0.76875408    -0.71800
O86         O  0.42971280  0.36425417  0.64544971    -0.72500
O87         O  0.38057601  0.29825378  0.76947048    -0.72100
O88         O  0.50017890  0.24841389  0.69845865    -0.72700
O89         O  0.38324054  0.17145980  0.64873077    -0.72100
O90         O  0.42826673  0.29202288  0.57668096    -0.72900
O91         O  0.43092666  0.17525844  0.69636435    -0.72200
O92         O  0.37726360  0.24623974  0.57960771    -0.72700
O93         O  0.30874577  0.24403306  0.65323979    -0.72600
O94         O  0.31077386  0.29685130  0.69701998    -0.72400
C95         C  0.40662533  0.38618966  0.66847064     0.79400
C96         C  0.52009970  0.27160071  0.67361723     0.79900
C97         C  0.40336178  0.27274774  0.78853229     0.78800
C98         C  0.40889356  0.15369667  0.67215392     0.79200
C99         C  0.40143420  0.26953429  0.55885031     0.80300
C100        C  0.29035939  0.27103322  0.67544402     0.79400
N101        N  0.96355405  0.28958522  0.74644005    -0.01200
C102        C  0.99956932  0.30947411  0.73807191     0.01400
C103        C  0.01067660  0.33465589  0.77043920    -0.21500
C104        C  0.98089586  0.33001446  0.79986626    -0.21700
C105        C  0.95240562  0.30212536  0.78471631     0.01300
H106        H  0.03925323  0.35143249  0.77382723     0.15000
H107        H  0.98170368  0.34286174  0.83041214     0.15100
N108        N  0.88591658  0.32205878  0.62722231    -0.01200
C109        C  0.86461066  0.31178965  0.59303372     0.01400
C110        C  0.83410417  0.34055462  0.58618721    -0.21500
C111        C  0.83750676  0.37035702  0.61589589    -0.21700
C112        C  0.86996982  0.35895380  0.64017468     0.01300
H113        H  0.81511548  0.34266263  0.55943028     0.15000
H114        H  0.82133867  0.39958053  0.61671108     0.15100
N115        N  0.84576077  0.20580087  0.71190426    -0.01200
C116        C  0.85461875  0.16847579  0.72905809     0.01400
C117        C  0.82111233  0.15337279  0.75064544    -0.21500
C118        C  0.79060888  0.18207429  0.74695568    -0.21700
C119        C  0.80619581  0.21399862  0.72318749     0.01300
H120        H  0.81816375  0.12321656  0.76505929     0.15000
H121        H  0.75945239  0.17881339  0.75820116     0.15100
C122        C  0.89782597  0.29101576  0.65639359     0.82500
N123        N  0.87081765  0.25978678  0.66580529    -0.75800
C124        C  0.87625811  0.23588490  0.69944330     0.84900
N125        N  0.90847223  0.24394888  0.72443439    -0.75800
C126        C  0.93550193  0.27507133  0.71577668     0.85000
N127        N  0.92994470  0.29846669  0.68166234    -0.77500
Zn128      Zn  0.93597843  0.28823951  0.21676550     1.49700
Zn129      Zn  0.86346800  0.28845033  0.15064012     1.49400
Zn130      Zn  0.93262856  0.21669858  0.14727976     1.49100
Zn131      Zn  0.86635981  0.21733793  0.22133177     1.49500
O132        O  0.89944774  0.25266440  0.18388852    -1.81900
O133        O  0.92487504  0.34926777  0.20714114    -0.72500
O134        O  0.87089849  0.27631602  0.08938933    -0.72300
O135        O  0.99379992  0.22785734  0.15472473    -0.71800
O136        O  0.87531900  0.35083935  0.16118101    -0.72500
O137        O  0.99582331  0.27753418  0.20201233    -0.72100
O138        O  0.91925713  0.22775074  0.08759737    -0.72700
O139        O  0.87685898  0.15590042  0.21002175    -0.72100
O140        O  0.80365627  0.27583055  0.16469782    -0.72900
O141        O  0.92216588  0.15513116  0.15901654    -0.72200
O142        O  0.80508532  0.22766447  0.21319573    -0.72700
O143        O  0.88036243  0.22872306  0.28130855    -0.72600
O144        O  0.92742996  0.27894273  0.27764358    -0.72400
C145        C  0.90045877  0.36967672  0.18473237     0.79400
C146        C  0.89433469  0.25170682  0.06933249     0.79900
C147        C  0.01408289  0.25299320  0.17715159     0.78800
C148        C  0.89951496  0.13586030  0.18483070     0.79200
C149        C  0.78506719  0.25125171  0.18933028     0.80300
C150        C  0.90466397  0.25448291  0.29855632     0.79400
N151        N  0.98427460  0.81150030  0.22400228    -0.01200
C152        C  0.97339978  0.84562338  0.24639399     0.01400
C153        C  0.00258682  0.85327929  0.27601922    -0.21500
C154        C  0.03222583  0.82361184  0.27153150    -0.21700
C155        C  0.02080878  0.79871122  0.23915106     0.01300
H156        H  0.00491807  0.88020257  0.29563788     0.15000
H157        H  0.06145898  0.82344313  0.28687089     0.15100
N158        N  0.86795739  0.72102166  0.24248593    -0.01200
C159        C  0.83448917  0.69946330  0.22937091     0.01400
C160        C  0.82501005  0.66768811  0.25622563    -0.21500
C161        C  0.85270153  0.67019710  0.28728445    -0.21700
C162        C  0.87846993  0.70339445  0.27867055     0.01300
H163        H  0.79813752  0.64789723  0.25573880     0.15000
H164        H  0.85156679  0.65230626  0.31519181     0.15100
N165        N  0.95904896  0.69998639  0.12859621    -0.01200
C166        C  0.98152305  0.71308190  0.09566921     0.01400
C167        C  0.01447913  0.68691349  0.08915135    -0.21500
C168        C  0.01121284  0.65561187  0.11714382    -0.21700
C169        C  0.97653447  0.66362491  0.14054001     0.01300
H170        H  0.03501289  0.68689997  0.06289139     0.15000
H171        H  0.02924333  0.62755517  0.11700727     0.15100
C172        C  0.95530650  0.78331582  0.20548304     0.82500
N173        N  0.96595895  0.76122574  0.17144208    -0.75800
C174        C  0.94225273  0.72880250  0.15825183     0.84900
N175        N  0.90819341  0.71820725  0.18025964    -0.75800
C176        C  0.89743677  0.73945526  0.21480037     0.85000
N177        N  0.92119541  0.77190163  0.22715333    -0.77500
Zn178      Zn  0.39293852  0.73322291  0.14069911     1.49700
Zn179      Zn  0.39502127  0.79847393  0.21385624     1.49400
Zn180      Zn  0.46135056  0.72566458  0.21225642     1.49100
Zn181      Zn  0.46724183  0.79942509  0.14563154     1.49500
O182        O  0.42937536  0.76408983  0.17803485    -1.81900
O183        O  0.33229381  0.74434233  0.15259482    -0.72500
O184        O  0.40634413  0.78712615  0.27322571    -0.72300
O185        O  0.44595757  0.66564891  0.19890012    -0.71800
O186        O  0.33418429  0.78780947  0.20515716    -0.72500
O187        O  0.40134357  0.67173316  0.14852221    -0.72100
O188        O  0.45203043  0.73629305  0.27364585    -0.72700
O189        O  0.52725651  0.78431470  0.15602729    -0.72100
O190        O  0.40682311  0.85917787  0.20384637    -0.72900
O191        O  0.52245439  0.73233340  0.20010736    -0.72200
O192        O  0.45791506  0.86109787  0.15851053    -0.72700
O193        O  0.45759128  0.79056070  0.08484104    -0.72600
O194        O  0.40571776  0.74594112  0.08086412    -0.72400
C195        C  0.31382718  0.76588271  0.17985752     0.79400
C196        C  0.42902869  0.76207391  0.29273876     0.79900
C197        C  0.42242444  0.64922443  0.17233953     0.78800
C198        C  0.54422847  0.75645887  0.17773224     0.79200
C199        C  0.43228755  0.87971549  0.18193439     0.80300
C200        C  0.43274116  0.76889624  0.06352604     0.79400
C201        C  0.74016757  0.69774551  0.16490999     0.14900
C202        C  0.72224704  0.73580437  0.17640910     0.01900
C203        C  0.74663600  0.76579576  0.19618913     0.16900
C204        C  0.78656242  0.75596915  0.20864288     0.26300
C205        C  0.80249258  0.71586344  0.20172970    -0.40100
C206        C  0.77993912  0.68784659  0.17747554     0.33300
C207        C  0.67683730  0.74088411  0.17487667     0.01900
F208        F  0.73025532  0.80293444  0.20738520    -0.12400
F209        F  0.79490367  0.64928550  0.16940106    -0.12900
C210        C  0.65173110  0.71548750  0.19953560     0.16900
C211        C  0.60908593  0.72067355  0.20061331     0.26300
C212        C  0.59007105  0.75149394  0.17675874    -0.40000
C213        C  0.61550565  0.77689092  0.15179408     0.33200
C214        C  0.65840017  0.77171235  0.15107239     0.14900
F215        F  0.66878658  0.68605601  0.22359348    -0.12400
F216        F  0.59906786  0.80685833  0.12799293    -0.12900
F217        F  0.58662814  0.69543971  0.22547166    -0.15200
F218        F  0.68191988  0.79659264  0.12684646    -0.13700
F219        F  0.71783563  0.66881489  0.14440648    -0.13700
F220        F  0.80738308  0.78377462  0.23198242    -0.15200
C221        C  0.20484841  0.77543713  0.22265257     0.14900
C222        C  0.18100594  0.75976909  0.19049980     0.01900
C223        C  0.20080683  0.74697044  0.15434571     0.16900
C224        C  0.24378807  0.74921379  0.15060807     0.26300
C225        C  0.26793661  0.76466197  0.18296786    -0.40100
C226        C  0.24766421  0.77800776  0.21897636     0.33300
C227        C  0.13543211  0.75945203  0.19449610     0.01900
F228        F  0.17847718  0.73203425  0.12270826    -0.12400
F229        F  0.26916561  0.79321841  0.25107709    -0.12900
C230        C  0.11181650  0.78677455  0.17105022     0.16900
C231        C  0.07079897  0.79474477  0.18179926     0.26300
C232        C  0.05295437  0.77570766  0.21630821    -0.40000
C233        C  0.07507899  0.74478038  0.23669240     0.33200
C234        C  0.11604427  0.73673212  0.22591522     0.14900
F235        F  0.12976375  0.80932098  0.14073497    -0.12400
F236        F  0.05843494  0.72580392  0.26995975    -0.12900
F237        F  0.05056093  0.82548297  0.16218687    -0.15200
F238        F  0.13781470  0.70926783  0.24832246    -0.13700
F239        F  0.18646088  0.78918922  0.25753745    -0.13700
F240        F  0.26160315  0.73681873  0.11499136    -0.15200
C241        C  0.91525549  0.94659329  0.25116411     0.14900
C242        C  0.91372253  0.95754546  0.20969800     0.01900
C243        C  0.92350322  0.92709463  0.18018185     0.16900
C244        C  0.93903656  0.88825806  0.19189856     0.26300
C245        C  0.94430554  0.87884147  0.23351865    -0.40100
C246        C  0.92945121  0.90743347  0.26287050     0.33300
C247        C  0.90661388  0.00181875  0.19799100     0.01900
F248        F  0.92017337  0.93582637  0.13985820    -0.12400
F249        F  0.93162807  0.89877258  0.30332377    -0.12900
C250        C  0.93648789  0.02365122  0.17511942     0.16900
C251        C  0.93330337  0.06673727  0.16924213     0.26300
C252        C  0.90035443  0.08930623  0.18659200    -0.40000
C253        C  0.86933427  0.06692570  0.20762228     0.33200
C254        C  0.87241219  0.02376751  0.21311545     0.14900
F255        F  0.97025317  0.00370668  0.16049067    -0.12400
F256        F  0.83606654  0.08679740  0.22341972    -0.12900
F257        F  0.96377066  0.08652134  0.14829505    -0.15200
F258        F  0.84222684  0.00346145  0.23398826    -0.13700
F259        F  0.90643450  0.97507421  0.28065549    -0.13700
F260        F  0.95231026  0.86172220  0.16235150    -0.15200
C261        C  0.92031575  0.48052482  0.22225947     0.14900
C262        C  0.91334486  0.50423977  0.18697833     0.01900
C263        C  0.89869294  0.48354545  0.15191740     0.16900
C264        C  0.89277276  0.44019340  0.15165942     0.26300
C265        C  0.90216739  0.41619943  0.18616694    -0.40100
C266        C  0.91536714  0.43709555  0.22171243     0.33300
C267        C  0.92563659  0.54926867  0.18497802     0.01900
F268        F  0.89243597  0.50491684  0.11689348    -0.12400
F269        F  0.92377985  0.41545187  0.25611107    -0.12900
C270        C  0.96579681  0.56148320  0.19540387     0.16900
C271        C  0.98046274  0.60135692  0.18587677     0.26300
C272        C  0.95600319  0.62963185  0.16431480    -0.40000
C273        C  0.91461054  0.61896221  0.15739376     0.33200
C274        C  0.89944869  0.57941587  0.16823487     0.14900
F275        F  0.99233522  0.53364454  0.21138630    -0.12400
F276        F  0.88985618  0.64492469  0.13645356    -0.12900
F277        F  0.02006991  0.61103891  0.19452438    -0.15200
F278        F  0.85973880  0.56974881  0.16011938    -0.13700
F279        F  0.93255465  0.49936779  0.25727777    -0.13700
F280        F  0.88021486  0.42149346  0.11670178    -0.15200
C281        C  0.92736166  0.29050852  0.49844135     0.14900
C282        C  0.89965025  0.26633324  0.47560784     0.01900
C283        C  0.86460069  0.25000674  0.49535147     0.16900
C284        C  0.85543640  0.26095213  0.53594728     0.26300
C285        C  0.88148658  0.28780536  0.55782397    -0.40100
C286        C  0.91853746  0.30088364  0.53928103     0.33300
C287        C  0.90410878  0.26295840  0.43033132     0.01900
F288        F  0.83729496  0.22655295  0.47418231    -0.12400
F289        F  0.94399061  0.32751716  0.55911466    -0.12900
C290        C  0.90942048  0.22421702  0.41085558     0.16900
C291        C  0.91003219  0.22131623  0.36798138     0.26300
C292        C  0.90563954  0.25715624  0.34385810    -0.40000
C293        C  0.90135113  0.29596609  0.36340857     0.33200
C294        C  0.90033335  0.29879629  0.40612848     0.14900
F295        F  0.91414723  0.18925787  0.43339814    -0.12400
F296        F  0.89628640  0.33103563  0.34106745    -0.12900
F297        F  0.91563527  0.18361980  0.34999783    -0.15200
F298        F  0.89400725  0.33647585  0.42394840    -0.13700
F299        F  0.96170066  0.30630734  0.48034320    -0.13700
F300        F  0.81927523  0.24827363  0.55282508    -0.15200
C301        C  0.91676710  0.23030891  0.86653656     0.14900
C302        C  0.89518108  0.25864674  0.89165214     0.01900
C303        C  0.88210903  0.29634087  0.87447291     0.16900
C304        C  0.89548489  0.30795413  0.83530351     0.26300
C305        C  0.92207242  0.28217134  0.81262457    -0.40100
C306        C  0.93013221  0.24199981  0.82729071     0.33300
C307        C  0.89346472  0.25288233  0.93694877     0.01900
F308        F  0.86063125  0.32420020  0.89733569    -0.12400
F309        F  0.95568757  0.21634281  0.80613683    -0.12900
C310        C  0.93032673  0.24851570  0.95858178     0.16900
C311        C  0.93029060  0.24741039  0.00131708     0.26300
C312        C  0.89346783  0.25137344  0.02379447    -0.40000
C313        C  0.85641958  0.25544522  0.00228449     0.33200
C314        C  0.85639599  0.25588251  0.95929031     0.14900
F315        F  0.96688690  0.24743982  0.93831863    -0.12400
F316        F  0.82016158  0.25844682  0.02285920    -0.12900
F317        F  0.96674203  0.24455643  0.02080259    -0.15200
F318        F  0.82018122  0.25928839  0.93947531    -0.13700
F319        F  0.92825034  0.19283478  0.88149620    -0.13700
F320        F  0.88681149  0.34671525  0.82160683    -0.15200
C321        C  0.09242374  0.31992905  0.67165194     0.14900
C322        C  0.11151757  0.28157858  0.67921420     0.01900
C323        C  0.08783583  0.24895558  0.69594404     0.16900
C324        C  0.04752797  0.25632425  0.70972959     0.26300
C325        C  0.03070399  0.29649027  0.70736005    -0.40100
C326        C  0.05247062  0.32740833  0.68589378     0.33300
C327        C  0.15714385  0.27850727  0.67689002     0.01900
F328        F  0.10516707  0.21141387  0.70321968    -0.12400
F329        F  0.03671135  0.36628874  0.68277513    -0.12900
C330        C  0.18107848  0.30577904  0.70051988     0.16900
C331        C  0.22391615  0.30329660  0.70004175     0.26300
C332        C  0.24435580  0.27305765  0.67603996    -0.40000
C333        C  0.22016894  0.24545392  0.65247281     0.33200
C334        C  0.17705815  0.24813421  0.65302903     0.14900
F335        F  0.16277576  0.33451346  0.72507887    -0.12400
F336        F  0.23804612  0.21582184  0.62871516    -0.12900
F337        F  0.24516689  0.33072296  0.72344001    -0.15200
F338        F  0.15479472  0.22136268  0.62985847    -0.13700
F339        F  0.11391522  0.35143430  0.65387587    -0.13700
F340        F  0.02720822  0.22583738  0.73034866    -0.15200
C341        C  0.63024807  0.23445203  0.68236922     0.14900
C342        C  0.65266622  0.27191421  0.68030626     0.01900
C343        C  0.63135188  0.30940992  0.67509982     0.16900
C344        C  0.58829870  0.30934820  0.67179698     0.26300
C345        C  0.56578288  0.27186284  0.67478623    -0.40100
C346        C  0.58731047  0.23443341  0.68001339     0.33300
C347        C  0.69788200  0.27113884  0.68652137     0.01900
F348        F  0.65220295  0.34605140  0.67364321    -0.12400
F349        F  0.56675022  0.19764427  0.68241694    -0.12900
C350        C  0.72409781  0.25382576  0.65664664     0.16900
C351        C  0.76412220  0.24163505  0.66670089     0.26300
C352        C  0.77814758  0.24601868  0.70695393    -0.40000
C353        C  0.75369817  0.26818209  0.73521876     0.33200
C354        C  0.71385110  0.28052564  0.72513761     0.14900
F355        F  0.70958533  0.24514332  0.61886580    -0.12400
F356        F  0.76631121  0.27264189  0.77437475    -0.12900
F357        F  0.78676005  0.22013620  0.63881071    -0.15200
F358        F  0.68927616  0.29725546  0.75455973    -0.13700
F359        F  0.65003286  0.19782124  0.68777436    -0.13700
F360        F  0.56849119  0.34608811  0.66732965    -0.15200
C361        C  0.38992750  0.75456884  0.49156066     0.14900
C362        C  0.42379963  0.77183437  0.47057343     0.01900
C363        C  0.45166454  0.79687141  0.49239355     0.16900
C364        C  0.44317247  0.80814432  0.53312608     0.26300
C365        C  0.40711567  0.79406729  0.55269881    -0.40100
C366        C  0.38178131  0.76540241  0.53227019     0.33300
C367        C  0.42611694  0.76874695  0.42514913     0.01900
F368        F  0.48492811  0.81362063  0.47319361    -0.12400
F369        F  0.34630538  0.75196981  0.55003516    -0.12900
C370        C  0.39402999  0.78502541  0.40181705     0.16900
C371        C  0.39488433  0.78232655  0.35920403     0.26300
C372        C  0.42815428  0.76347225  0.33842904    -0.40000
C373        C  0.46044987  0.74716794  0.36188635     0.33200
C374        C  0.45951800  0.75004968  0.40479982     0.14900
F375        F  0.36184357  0.80430190  0.42042708    -0.12400
F376        F  0.49330904  0.72905666  0.34338177    -0.12900
F377        F  0.36259521  0.79788354  0.33839141    -0.15200
F378        F  0.49102753  0.73419524  0.42649885    -0.13700
F379        F  0.36281234  0.72983615  0.47152123    -0.13700
F380        F  0.46818840  0.83570852  0.55230545    -0.15200
C381        C  0.39002263  0.50248766  0.68785286     0.14900
C382        C  0.41166431  0.52035866  0.65489215     0.01900
C383        C  0.43124296  0.49392436  0.62655262     0.16900
C384        C  0.42910173  0.45073429  0.63077340     0.26300
C385        C  0.40781150  0.43247537  0.66399849    -0.40100
C386        C  0.38814570  0.45904833  0.69244976     0.33300
C387        C  0.41642689  0.56631993  0.65073290     0.01900
F388        F  0.45377227  0.50996868  0.59518435    -0.12400
F389        F  0.36754681  0.44320208  0.72512662    -0.12900
C390        C  0.43479792  0.58992063  0.68197567     0.16900
C391        C  0.44911460  0.63037687  0.67422887     0.26300
C392        C  0.44623569  0.64731363  0.63487485    -0.40000
C393        C  0.42343172  0.62577869  0.60527317     0.33200
C394        C  0.40840554  0.58571556  0.61321226     0.14900
F395        F  0.44319274  0.57225632  0.71848970    -0.12400
F396        F  0.41965257  0.64175600  0.56719183    -0.12900
F397        F  0.47083522  0.65050935  0.70349167    -0.15200
F398        F  0.38909899  0.56447431  0.58300996    -0.13700
F399        F  0.37056114  0.52712072  0.71559525    -0.13700
F400        F  0.44818888  0.42694487  0.60203562    -0.15200
C401        C  0.42145194  0.78428460  0.85946409     0.14900
C402        C  0.45206574  0.77010225  0.88597667     0.01900
C403        C  0.49108570  0.76096940  0.86964585     0.16900
C404        C  0.50069267  0.77023296  0.82888935     0.26300
C405        C  0.47161515  0.78928908  0.80358689    -0.40100
C406        C  0.43110207  0.79370143  0.81852185     0.33300
C407        C  0.44549243  0.77006987  0.93118145     0.01900
F408        F  0.52084246  0.74571692  0.89406061    -0.12400
F409        F  0.40198079  0.81144955  0.79503265    -0.12900
C410        C  0.41620112  0.74409956  0.95010597     0.16900
C411        C  0.41160446  0.74385990  0.99288835     0.26300
C412        C  0.43602613  0.77001116  0.01777785    -0.40000
C413        C  0.46463444  0.79670747  0.99830600     0.33200
C414        C  0.46926762  0.79660890  0.95576355     0.14900
F415        F  0.39271688  0.71816889  0.92722534    -0.12400
F416        F  0.48849107  0.82312644  0.02028014    -0.12900
F417        F  0.38362874  0.71745300  0.00979151    -0.15200
F418        F  0.49700194  0.82298534  0.93838448    -0.13700
F419        F  0.38326103  0.79275829  0.87412490    -0.13700
F420        F  0.53969826  0.76417710  0.81517344    -0.15200
C421        C  0.45134753  0.04546289  0.69363703     0.14900
C422        C  0.42610681  0.01947147  0.67016165     0.01900
C423        C  0.39494070  0.03747678  0.64685602     0.16900
C424        C  0.38916501  0.08095155  0.64712220     0.26300
C425        C  0.41425099  0.10724811  0.67120920    -0.40100
C426        C  0.44555273  0.08855462  0.69433975     0.33300
C427        C  0.43230490  0.97363416  0.67211664     0.01900
F428        F  0.37030748  0.01299030  0.62366191    -0.12400
F429        F  0.47100672  0.11181493  0.71786885    -0.12900
C430        C  0.40743775  0.94926369  0.69807593     0.16900
C431        C  0.42031742  0.90957552  0.71025740     0.26300
C432        C  0.45839567  0.89383918  0.69679828    -0.40000
C433        C  0.48094852  0.91637703  0.66737970     0.33200
C434        C  0.46800655  0.95592886  0.65511945     0.14900
F435        F  0.37299105  0.96572241  0.71515314    -0.12400
F436        F  0.51762118  0.90178149  0.65359901    -0.12900
F437        F  0.39822792  0.88903421  0.73926314    -0.15200
F438        F  0.49223273  0.97851258  0.62943731    -0.13700
F439        F  0.48152487  0.02883780  0.71666213    -0.13700
F440        F  0.35891382  0.09709114  0.62391874    -0.15200
C441        C  0.15788235  0.78758523  0.72000486     0.14900
C442        C  0.17987072  0.78280728  0.68314118     0.01900
C443        C  0.15806891  0.77324773  0.64741248     0.16900
C444        C  0.11523073  0.76874959  0.64841407     0.26300
C445        C  0.09303558  0.77404601  0.68517134    -0.40100
C446        C  0.11493188  0.78339199  0.72102059     0.33300
C447        C  0.22503562  0.79060352  0.68081984     0.01900
F448        F  0.17816606  0.77005305  0.61102985    -0.12400
F449        F  0.09480750  0.78813020  0.75722019    -0.12900
C450        C  0.25181028  0.76000953  0.66530520     0.16900
C451        C  0.29261665  0.77010153  0.65499445     0.26300
C452        C  0.30723700  0.81118843  0.65966967    -0.40000
C453        C  0.28169383  0.84043337  0.67943255     0.33200
C454        C  0.24096616  0.83032506  0.68969939     0.14900
F455        F  0.23767326  0.72092743  0.65783818    -0.12400
F456        F  0.29517379  0.87998683  0.68565005    -0.12900
F457        F  0.31631670  0.74069589  0.63668875    -0.15200
F458        F  0.21608398  0.86052103  0.70492683    -0.13700
F459        F  0.17805419  0.79630073  0.75508246    -0.13700
F460        F  0.09531340  0.76117335  0.61293426    -0.15200
C461        C  0.94124131  0.72115776  0.90648052     0.14900
C462        C  0.94069620  0.75674593  0.93173381     0.01900
C463        C  0.93652242  0.79604715  0.91336991     0.16900
C464        C  0.93359102  0.79967409  0.87071002     0.26300
C465        C  0.93406919  0.76400186  0.84560406    -0.40100
C466        C  0.93755331  0.72472750  0.86403645     0.33300
C467        C  0.94615235  0.75254652  0.97684156     0.01900
F468        F  0.93487288  0.83091960  0.93682687    -0.12400
F469        F  0.93924441  0.68975132  0.84069269    -0.12900
C470        C  0.97946777  0.77192728  0.99647915     0.16900
C471        C  0.98836801  0.76276293  0.03732974     0.26300
C472        C  0.96400464  0.73432619  0.05956169    -0.40000
C473        C  0.92901543  0.71726533  0.04080153     0.33200
C474        C  0.92026840  0.72618005  0.99989438     0.14900
F475        F  0.00545261  0.79706399  0.97514748    -0.12400
F476        F  0.90567953  0.68850578  0.06064350    -0.12900
F477        F  0.02277644  0.77907860  0.05425238    -0.15200
F478        F  0.88762344  0.70725614  0.98211843    -0.13700
F479        F  0.94690720  0.68286395  0.92279437    -0.13700
F480        F  0.92945635  0.83799103  0.85400282    -0.15200
C481        C  0.90202966  0.99667156  0.66724713     0.14900
C482        C  0.93211270  0.01880609  0.68915656     0.01900
C483        C  0.96475658  0.99653385  0.70618595     0.16900
C484        C  0.96602640  0.95299479  0.70343209     0.26300
C485        C  0.93490700  0.93060126  0.68301055    -0.40100
C486        C  0.90357303  0.95324739  0.66389337     0.33300
C487        C  0.92593039  0.06386518  0.69851634     0.01900
F488        F  0.99507099  0.01690161  0.72634233    -0.12400
F489        F  0.87298993  0.93339441  0.64365217    -0.12900
C490        C  0.92327295  0.07722516  0.73943235     0.16900
C491        C  0.90578959  0.11568532  0.74918204     0.26300
C492        C  0.88957597  0.14095440  0.71843007    -0.40000
C493        C  0.89726675  0.13035271  0.67738657     0.33200
C494        C  0.91570698  0.09216979  0.66751137     0.14900
F495        F  0.93297914  0.05116585  0.77033922    -0.12400
F496        F  0.88231831  0.15421537  0.64690307    -0.12900
F497        F  0.90005689  0.12597627  0.78907023    -0.15200
F498        F  0.92026852  0.08126520  0.62765354    -0.13700
F499        F  0.86942988  0.01680979  0.65120651    -0.13700
F500        F  0.99756819  0.93283146  0.72136641    -0.15200
C501        C  0.96588388  0.74715909  0.45855937     0.14900
C502        C  0.92944806  0.75492562  0.43704662     0.01900
C503        C  0.89458391  0.76774131  0.45965534     0.16900
C504        C  0.89592573  0.77210970  0.50232645     0.26300
C505        C  0.93186328  0.76271833  0.52401008    -0.40100
C506        C  0.96691457  0.75040223  0.50139473     0.33300
C507        C  0.92635892  0.74640660  0.39191846     0.01900
F508        F  0.85831131  0.77415538  0.44069960    -0.12400
F509        F  0.00254681  0.74180079  0.52067855    -0.12900
C510        C  0.93855703  0.70763765  0.37561695     0.16900
C511        C  0.92800251  0.69608638  0.33573393     0.26300
C512        C  0.90405674  0.72234282  0.31142880    -0.40000
C513        C  0.89544667  0.76266326  0.32595849     0.33200
C514        C  0.90700113  0.77477248  0.36556682     0.14900
F515        F  0.95725769  0.67909517  0.39941748    -0.12400
F516        F  0.87204823  0.78878527  0.30365469    -0.12900
F517        F  0.93780687  0.65737136  0.32215731    -0.15200
F518        F  0.89706381  0.81348475  0.37899231    -0.13700
F519        F  0.00075895  0.73651222  0.43810805    -0.13700
F520        F  0.86123284  0.78377306  0.52253713    -0.15200
C521        C  0.93652909  0.53922205  0.65105546     0.14900
C522        C  0.92863141  0.51738430  0.68758841     0.01900
C523        C  0.92515797  0.54027309  0.72420651     0.16900
C524        C  0.92741388  0.58393439  0.72396538     0.26300
C525        C  0.93433684  0.60570015  0.68724468    -0.40100
C526        C  0.93977676  0.58275807  0.65097622     0.33300
C527        C  0.91936919  0.47170178  0.68625618     0.01900
F528        F  0.91908131  0.52035478  0.76024616    -0.12400
F529        F  0.94572939  0.60262385  0.61488755    -0.12900
C530        C  0.94532337  0.44383452  0.66506172     0.16900
C531        C  0.93141813  0.40373638  0.65461362     0.26300
C532        C  0.89140681  0.39080917  0.66538938    -0.40000
C533        C  0.86785915  0.41653325  0.69124373     0.33200
C534        C  0.88146424  0.45666262  0.70130423     0.14900
F535        F  0.98301624  0.45649187  0.65192025    -0.12400
F536        F  0.82963379  0.40436487  0.70321511    -0.12900
F537        F  0.95526468  0.37958136  0.63006164    -0.15200
F538        F  0.85551709  0.48222056  0.72206952    -0.13700
F539        F  0.93867886  0.51862262  0.61485100    -0.13700
F540        F  0.92285704  0.60494990  0.75974700    -0.15200
C541        C  0.70631194  0.73419968  0.69207799     0.14900
C542        C  0.68528661  0.77103946  0.68254486     0.01900
C543        C  0.70811539  0.80795252  0.67734351     0.16900
C544        C  0.75111737  0.80769166  0.67987470     0.26300
C545        C  0.77230522  0.77051048  0.68797607    -0.40100
C546        C  0.74926131  0.73396814  0.69499438     0.33300
C547        C  0.64057651  0.76942183  0.67294961     0.01900
F548        F  0.68873824  0.84419684  0.66901036    -0.12400
F549        F  0.76840686  0.69735024  0.70228844    -0.12900
C550        C  0.61165537  0.75284899  0.70083449     0.16900
C551        C  0.57191730  0.74197227  0.68798055     0.26300
C552        C  0.56039005  0.74803534  0.64713011    -0.40000
C553        C  0.58783503  0.76913482  0.62082210     0.33200
C554        C  0.62758155  0.77924135  0.63338717     0.14900
F555        F  0.62287026  0.74440167  0.73970373    -0.12400
F556        F  0.57779813  0.77533569  0.58118402    -0.12900
F557        F  0.54675474  0.72098713  0.71406971    -0.15200
F558        F  0.65472060  0.79447735  0.60540639    -0.13700
F559        F  0.68544452  0.69773492  0.69608333    -0.13700
F560        F  0.77205034  0.84389670  0.67427701    -0.15200
C561        C  0.43177693  0.53324355  0.19525094     0.14900
C562        C  0.41431914  0.51523257  0.16031720     0.01900
C563        C  0.39931693  0.54142539  0.12966052     0.16900
C564        C  0.40204433  0.58466954  0.13354742     0.26300
C565        C  0.41961697  0.60303017  0.16849929    -0.40100
C566        C  0.43441334  0.57666135  0.19936375     0.33300
C567        C  0.40973705  0.46933972  0.15602435     0.01900
F568        F  0.38100053  0.52508403  0.09612521    -0.12400
F569        F  0.45089286  0.59274685  0.23391441    -0.12900
C570        C  0.38580738  0.44661572  0.18425232     0.16900
C571        C  0.37341422  0.40576692  0.17524530     0.26300
C572        C  0.38428117  0.38740392  0.13763911    -0.40000
C573        C  0.41180859  0.40847874  0.11159786     0.33200
C574        C  0.42457189  0.44904832  0.12076793     0.14900
F575        F  0.37072251  0.46540568  0.21838941    -0.12400
F576        F  0.42277506  0.39138194  0.07515947    -0.12900
F577        F  0.34634126  0.38642068  0.20071113    -0.15200
F578        F  0.44881252  0.46974487  0.09358964    -0.13700
F579        F  0.44655998  0.50874680  0.22531809    -0.13700
F580        F  0.38758932  0.60842148  0.10271332    -0.15200
C581        C  0.12526166  0.22062516  0.15780070     0.14900
C582        C  0.14681576  0.25779753  0.16592234     0.01900
C583        C  0.12435081  0.29303823  0.17841426     0.16900
C584        C  0.08150655  0.29120922  0.18266466     0.26300
C585        C  0.05981064  0.25423115  0.17393361    -0.40100
C586        C  0.08227840  0.21892174  0.16144093     0.33300
C587        C  0.19204265  0.26117859  0.15805874     0.01900
F588        F  0.14370144  0.32999663  0.18470026    -0.12400
F589        F  0.06273037  0.18250688  0.15308820    -0.12900
C590        C  0.20815178  0.25180500  0.11912962     0.16900
C591        C  0.24884230  0.26193388  0.10905645     0.26300
C592        C  0.27411330  0.28295114  0.13711594    -0.40000
C593        C  0.25930157  0.28894193  0.17722573     0.33200
C594        C  0.21868452  0.27787613  0.18765674     0.14900
F595        F  0.18339217  0.23669185  0.08940771    -0.12400
F596        F  0.28235426  0.30972168  0.20499374    -0.12900
F597        F  0.26220289  0.25551090  0.07014761    -0.15200
F598        F  0.20455214  0.28595175  0.22598699    -0.13700
F599        F  0.14588595  0.18583577  0.14626981    -0.13700
F600        F  0.06111052  0.32634651  0.19359282    -0.15200
C601        C  0.42019896  0.29704102  0.44627018     0.14900
C602        C  0.39002308  0.27307003  0.42676132     0.01900
C603        C  0.36372260  0.24810367  0.45061729     0.16900
C604        C  0.36751891  0.24681359  0.49314146     0.26300
C605        C  0.39777863  0.27077008  0.51320387    -0.40100
C606        C  0.42390100  0.29622271  0.48899960     0.33300
C607        C  0.38643607  0.27210235  0.38148851     0.01900
F608        F  0.33471373  0.22404118  0.43248075    -0.12400
F609        F  0.45312792  0.32047331  0.50647983    -0.12900
C610        C  0.41607860  0.25142447  0.35752502     0.16900
C611        C  0.40776850  0.24074179  0.31682674     0.26300
C612        C  0.36948591  0.25026408  0.29966639    -0.40000
C613        C  0.34202458  0.27526777  0.32219982     0.33200
C614        C  0.35036474  0.28598597  0.36281006     0.14900
F615        F  0.45118250  0.23766407  0.37477158    -0.12400
F616        F  0.30513681  0.28546229  0.30622431    -0.12900
F617        F  0.43488276  0.21638404  0.29615288    -0.15200
F618        F  0.32174608  0.30708582  0.38493330    -0.13700
F619        F  0.44589377  0.32155011  0.42391573    -0.13700
F620        F  0.34140653  0.22180402  0.51447134    -0.15200
C621        C  0.43625894  0.08806317  0.20014967     0.14900
C622        C  0.41057693  0.05855576  0.18143893     0.01900
C623        C  0.37160396  0.07076903  0.16828561     0.16900
C624        C  0.35689242  0.11060570  0.17735215     0.26300
C625        C  0.38073559  0.13875236  0.20015968    -0.40100
C626        C  0.42148419  0.12802865  0.20940908     0.33300
C627        C  0.42048817  0.01363413  0.18290059     0.01900
F628        F  0.34632182  0.04274744  0.15007535    -0.12400
F629        F  0.44520079  0.15414005  0.23183405    -0.12900
C630        C  0.40439047  0.98962775  0.21499594     0.16900
C631        C  0.40966462  0.94650712  0.21546544     0.26300
C632        C  0.43094722  0.92614827  0.18343616    -0.40000
C633        C  0.44870300  0.95068860  0.15212466     0.33200
C634        C  0.44339221  0.99408597  0.15188691     0.14900
F635        F  0.38258690  0.00803913  0.24560375    -0.12400
F636        F  0.46985559  0.93268377  0.12088379    -0.12900
F637        F  0.39345508  0.92475318  0.24727645    -0.15200
F638        F  0.45950947  0.01686133  0.12077303    -0.13700
F639        F  0.47409335  0.07684994  0.21300600    -0.13700
F640        F  0.31765968  0.12022352  0.16761471    -0.15200
C641        C  0.67335110  0.23348538  0.22263204     0.14900
C642        C  0.65197595  0.24374884  0.18693055     0.01900
C643        C  0.67476906  0.25661736  0.15243324     0.16900
C644        C  0.71762905  0.25971917  0.15361051     0.26300
C645        C  0.73920798  0.24936682  0.18918175    -0.40100
C646        C  0.71648202  0.23609217  0.22371558     0.33300
C647        C  0.60636819  0.23878924  0.18395696     0.01900
F648        F  0.65558535  0.26459712  0.11673231    -0.12400
F649        F  0.73591252  0.22606122  0.25875741    -0.12900
C650        C  0.58214247  0.27139211  0.16876948     0.16900
C651        C  0.54199246  0.26371376  0.15529477     0.26300
C652        C  0.52529393  0.22330686  0.15699002    -0.40000
C653        C  0.54744057  0.19222012  0.17732938     0.33200
C654        C  0.58769813  0.19973355  0.19040297     0.14900
F655        F  0.59863344  0.30994888  0.16378672    -0.12400
F656        F  0.53190542  0.15301085  0.17987967    -0.12900
F657        F  0.52172090  0.29442611  0.13569881    -0.15200
F658        F  0.60980540  0.16749466  0.20511293    -0.13700
F659        F  0.65247270  0.22115464  0.25658720    -0.13700
F660        F  0.73808764  0.27125334  0.11911796    -0.15200
C661        C  0.37364286  0.29155288  0.90119946     0.14900
C662        C  0.40131649  0.26545071  0.92131057     0.01900
C663        C  0.43057636  0.24368946  0.89793281     0.16900
C664        C  0.43154673  0.24666733  0.85533495     0.26300
C665        C  0.40309567  0.27167446  0.83448161    -0.40100
C666        C  0.37443450  0.29466277  0.85822766     0.33300
C667        C  0.39996015  0.25885744  0.96638602     0.01900
F668        F  0.45848670  0.21916924  0.91661542    -0.12400
F669        F  0.34660715  0.31959320  0.84001236    -0.12900
C670        C  0.39011719  0.21913253  0.98145754     0.16900
C671        C  0.40108987  0.20773952  0.02105329     0.26300
C672        C  0.42281352  0.23558766  0.04624476    -0.40000
C673        C  0.42794403  0.27699932  0.03308981     0.33200
C674        C  0.41636446  0.28862093  0.99341982     0.14900
F675        F  0.37374540  0.18992262  0.95628544    -0.12400
F676        F  0.44920301  0.30455954  0.05629425    -0.12900
F677        F  0.39545248  0.16762281  0.03284048    -0.15200
F678        F  0.42540675  0.32752232  0.97997246    -0.13700
F679        F  0.34522918  0.31320413  0.92305822    -0.13700
F680        F  0.46062129  0.22472684  0.83466073    -0.15200
loop_ 
_geom_bond_atom_site_label_1 
_geom_bond_atom_site_label_2 
_geom_bond_distance 
_geom_bond_site_symmetry_2 
_ccdc_geom_bond_type 
N1            C5   1.366       .  A
N1            C2   1.365       .  A
N1           C24   1.445       .  S
C2            C3   1.382       .  A
C2          C652   1.488       .  S
C3            C4   1.365       .  A
C3            H6   1.085       .  S
C4            C5   1.382       .  A
C4            H7   1.079       .  S
C5          C672   1.490       .  S
N8           C12   1.360       .  A
N8            C9   1.362       .  A
N8           C22   1.442       .  S
C9           C10   1.383       .  A
C9          C612   1.486       .  S
C10          C11   1.368       .  A
C10          H13   1.079       .  S
C11          C12   1.381       .  A
C11          H14   1.079       .  S
C12         C625   1.486       .  S
N15          C19   1.365       .  A
N15          C16   1.360       .  A
N15          C26   1.443       .  S
C16          C17   1.379       .  A
C16         C572   1.479       .  S
C17          C18   1.365       .  A
C17          H20   1.079       .  S
C18          C19   1.384       .  A
C18          H21   1.079       .  S
C19         C592   1.489       .  S
C22          N23   1.362       .  A
C22          N27   1.366       .  A
N23          C24   1.364       .  A
C24          N25   1.360       .  A
N25          C26   1.363       .  A
C26          N27   1.360       .  A
Zn28         O32   1.977       .  S
Zn28         O33   2.058       .  S
Zn28         O37   2.039       .  S
Zn28         O44   2.039       .  S
Zn29         O32   1.978       .  S
Zn29         O34   2.045   1_655  S
Zn29         O36   2.052       .  S
Zn29         O40   2.049       .  S
Zn30         O32   1.978       .  S
Zn30         O35   2.024       .  S
Zn30         O38   2.031   1_655  S
Zn30         O41   2.048       .  S
Zn31         O32   1.975       .  S
Zn31         O39   2.037       .  S
Zn31         O42   2.028       .  S
Zn31         O43   2.045       .  S
O33          C45   1.278       .  A
O34          C46   1.278       .  A
O35          C47   1.275       .  A
O36          C45   1.277       .  A
O37          C47   1.277       .  A
O38          C46   1.275       .  A
O39          C48   1.275       .  A
O40          C49   1.278       .  A
O41          C48   1.276       .  A
O42          C49   1.275       .  A
O43          C50   1.278       .  A
O44          C50   1.277       .  A
C45         C505   1.503       .  S
C46         C445   1.491       .  S
C47         C485   1.494       .  S
C48         C465   1.489       .  S
C49         C525   1.489       .  S
C50         C545   1.492       .  S
N51          C55   1.361       .  A
N51          C52   1.364       .  A
N51          C74   1.441       .  S
C52          C53   1.385       .  A
C52         C405   1.494       .  S
C53          C54   1.368       .  A
C53          H56   1.082       .  S
C54          C55   1.380       .  A
C54          H57   1.080       .  S
C55         C432   1.487       .  S
N58          C62   1.365       .  A
N58          C59   1.361       .  A
N58          C76   1.443       .  S
C59          C60   1.381       .  A
C59         C392   1.480       .  S
C60          C61   1.366       .  A
C60          H63   1.080       .  S
C61          C62   1.384       .  A
C61          H64   1.079       .  S
C62         C552   1.488       .  S
N65          C69   1.361       .  A
N65          C66   1.362       .  A
N65          C72   1.442       .  S
C66          C67   1.384       .  A
C66         C452   1.492       .  S
C67          C68   1.369       .  A
C67          H70   1.083       .  S
C68          C69   1.380       .  A
C68          H71   1.082       .  S
C69         C365   1.483       .  S
C72          N73   1.364       .  A
C72          N77   1.359       .  A
N73          C74   1.361       .  A
C74          N75   1.365       .  A
N75          C76   1.360       .  A
C76          N77   1.363       .  A
Zn78         O82   1.984       .  S
Zn78         O83   2.050       .  S
Zn78         O87   2.062       .  S
Zn78         O94   2.031       .  S
Zn79         O82   1.974       .  S
Zn79         O84   2.045       .  S
Zn79         O86   2.008       .  S
Zn79         O90   2.043       .  S
Zn80         O82   1.958       .  S
Zn80         O85   2.041       .  S
Zn80         O88   2.037       .  S
Zn80         O91   2.025       .  S
Zn81         O82   1.985       .  S
Zn81         O89   2.064       .  S
Zn81         O92   2.040       .  S
Zn81         O93   2.047       .  S
O83          C95   1.277       .  A
O84          C96   1.276       .  A
O85          C97   1.278       .  A
O86          C95   1.273       .  A
O87          C97   1.278       .  A
O88          C96   1.276       .  A
O89          C98   1.279       .  A
O90          C99   1.276       .  A
O91          C98   1.276       .  A
O92          C99   1.277       .  A
O93         C100   1.278       .  A
O94         C100   1.277       .  A
C95         C385   1.496       .  S
C96         C345   1.489       .  S
C97         C665   1.506       .  S
C98         C425   1.504       .  S
C99         C605   1.502       .  S
C100        C332   1.500       .  S
N101        C105   1.362       .  A
N101        C102   1.359       .  A
N101        C126   1.440       .  S
C102        C103   1.382   1_655  A
C102        C325   1.482   1_655  S
C103        C104   1.369   1_455  A
C103        H106   1.080       .  S
C104        C105   1.382       .  A
C104        H107   1.082       .  S
C105        C305   1.484       .  S
N108        C112   1.361       .  A
N108        C109   1.363       .  A
N108        C122   1.442       .  S
C109        C110   1.381       .  A
C109        C285   1.487       .  S
C110        C111   1.368       .  A
C110        H113   1.081       .  S
C111        C112   1.382       .  A
C111        H114   1.079       .  S
C112        C532   1.489       .  S
N115        C119   1.364       .  A
N115        C116   1.360       .  A
N115        C124   1.440       .  S
C116        C117   1.382       .  A
C116        C492   1.483       .  S
C117        C118   1.366       .  A
C117        H120   1.083       .  S
C118        C119   1.382       .  A
C118        H121   1.081       .  S
C119        C352   1.483       .  S
C122        N123   1.365       .  A
C122        N127   1.361       .  A
N123        C124   1.360       .  A
C124        N125   1.361       .  A
N125        C126   1.358       .  A
C126        N127   1.364       .  A
Zn128       O132   1.972       .  S
Zn128       O133   2.023       .  S
Zn128       O137   2.034       .  S
Zn128       O144   2.034       .  S
Zn129       O132   1.983       .  S
Zn129       O134   2.055       .  S
Zn129       O136   2.068       .  S
Zn129       O140   2.037       .  S
Zn130       O132   1.979       .  S
Zn130       O135   2.040       .  S
Zn130       O138   2.041       .  S
Zn130       O141   2.043       .  S
Zn131       O132   1.982       .  S
Zn131       O139   2.037       .  S
Zn131       O142   2.046       .  S
Zn131       O143   2.053       .  S
O133        C145   1.274       .  A
O134        C146   1.277       .  A
O135        C147   1.276   1_655  A
O136        C145   1.280       .  A
O137        C147   1.276   1_655  A
O138        C146   1.277       .  A
O139        C148   1.276       .  A
O140        C149   1.278       .  A
O141        C148   1.277       .  A
O142        C149   1.277       .  A
O143        C150   1.277       .  A
O144        C150   1.275       .  A
C145        C265   1.496       .  S
C146        C312   1.493       .  S
C147        C585   1.493       .  S
C148        C252   1.498       .  S
C149        C645   1.495       .  S
C150        C292   1.487       .  S
N151        C155   1.360   1_655  A
N151        C152   1.363       .  A
N151        C172   1.442       .  S
C152        C153   1.386   1_655  A
C152        C245   1.496       .  S
C153        C154   1.367       .  A
C153        H156   1.079       .  S
C154        C155   1.380       .  A
C154        H157   1.082       .  S
C155        C232   1.480       .  S
N158        C162   1.364       .  A
N158        C159   1.361       .  A
N158        C176   1.441       .  S
C159        C160   1.382       .  A
C159        C205   1.488       .  S
C160        C161   1.369       .  A
C160        H163   1.080       .  S
C161        C162   1.382       .  A
C161        H164   1.082       .  S
C162        C512   1.492       .  S
N165        C169   1.363       .  A
N165        C166   1.364       .  A
N165        C174   1.445       .  S
C166        C167   1.381   1_655  A
C166        C472   1.489       .  S
C167        C168   1.367       .  A
C167        H170   1.084       .  S
C168        C169   1.383   1_455  A
C168        H171   1.079       .  S
C169        C272   1.495       .  S
C172        N173   1.363       .  A
C172        N177   1.362       .  A
N173        C174   1.365       .  A
C174        N175   1.360       .  A
N175        C176   1.363       .  A
C176        N177   1.358       .  A
Zn178       O182   1.974       .  S
Zn178       O183   2.043       .  S
Zn178       O187   2.014       .  S
Zn178       O194   2.043       .  S
Zn179       O182   1.956       .  S
Zn179       O184   2.019       .  S
Zn179       O186   2.032       .  S
Zn179       O190   2.014       .  S
Zn180       O182   1.979       .  S
Zn180       O185   2.037       .  S
Zn180       O188   2.059       .  S
Zn180       O191   2.036       .  S
Zn181       O182   1.977       .  S
Zn181       O189   2.049       .  S
Zn181       O192   2.048       .  S
Zn181       O193   2.039       .  S
O183        C195   1.276       .  A
O184        C196   1.274       .  A
O185        C197   1.277       .  A
O186        C195   1.275       .  A
O187        C197   1.275       .  A
O188        C196   1.277       .  A
O189        C198   1.277       .  A
O190        C199   1.275       .  A
O191        C198   1.277       .  A
O192        C199   1.278       .  A
O193        C200   1.277       .  A
O194        C200   1.276       .  A
C195        C225   1.498       .  S
C196        C372   1.498       .  S
C197        C565   1.492       .  S
C198        C212   1.503       .  S
C199        C632   1.494       .  S
C200        C412   1.502       .  S
C201        C202   1.406       .  A
C201        C206   1.402       .  A
C201        F219   1.358       .  S
C202        C203   1.407       .  A
C202        C207   1.490       .  S
C203        C204   1.405       .  A
C203        F208   1.357       .  S
C204        C205   1.408       .  A
C204        F220   1.357       .  S
C205        C206   1.408       .  A
C206        F209   1.358       .  S
C207        C210   1.405       .  A
C207        C214   1.405       .  A
C210        C211   1.400       .  A
C210        F215   1.358       .  S
C211        C212   1.414       .  A
C211        F217   1.358       .  S
C212        C213   1.416       .  A
C213        C214   1.408       .  A
C213        F216   1.357       .  S
C214        F218   1.357       .  S
C221        C222   1.406       .  A
C221        C226   1.401       .  A
C221        F239   1.358       .  S
C222        C223   1.404       .  A
C222        C227   1.489       .  S
C223        C224   1.406       .  A
C223        F228   1.357       .  S
C224        C225   1.414       .  A
C224        F240   1.357       .  S
C225        C226   1.412       .  A
C226        F229   1.358       .  S
C227        C230   1.406       .  A
C227        C234   1.407       .  A
C230        C231   1.403       .  A
C230        F235   1.358       .  S
C231        C232   1.407       .  A
C231        F237   1.358       .  S
C232        C233   1.406       .  A
C233        C234   1.402       .  A
C233        F236   1.358       .  S
C234        F238   1.358       .  S
C241        C242   1.406       .  A
C241        C246   1.399       .  A
C241        F259   1.358       .  S
C242        C243   1.409       .  A
C242        C247   1.495   1_565  S
C243        C244   1.405       .  A
C243        F248   1.357       .  S
C244        C245   1.411       .  A
C244        F260   1.357       .  S
C245        C246   1.411       .  A
C246        F249   1.358       .  S
C247        C250   1.408       .  A
C247        C254   1.406       .  A
C250        C251   1.403       .  A
C250        F255   1.358       .  S
C251        C252   1.412       .  A
C251        F257   1.358       .  S
C252        C253   1.413       .  A
C253        C254   1.404       .  A
C253        F256   1.358       .  S
C254        F258   1.358       .  S
C261        C262   1.408       .  A
C261        C266   1.404       .  A
C261        F279   1.358       .  S
C262        C263   1.412       .  A
C262        C267   1.501       .  S
C263        C264   1.406       .  A
C263        F268   1.358       .  S
C264        C265   1.408       .  A
C264        F280   1.357       .  S
C265        C266   1.412       .  A
C266        F269   1.358       .  S
C267        C270   1.409       .  A
C267        C274   1.411       .  A
C270        C271   1.401       .  A
C270        F275   1.358       .  S
C271        C272   1.409       .  A
C271        F277   1.358   1_655  S
C272        C273   1.410       .  A
C273        C274   1.407       .  A
C273        F276   1.357       .  S
C274        F278   1.358       .  S
C281        C282   1.407       .  A
C281        C286   1.405       .  A
C281        F299   1.358       .  S
C282        C283   1.407       .  A
C282        C287   1.493       .  S
C283        C284   1.404       .  A
C283        F288   1.357       .  S
C284        C285   1.407       .  A
C284        F300   1.358       .  S
C285        C286   1.409       .  A
C286        F289   1.357       .  S
C287        C290   1.407       .  A
C287        C294   1.408       .  A
C290        C291   1.408       .  A
C290        F295   1.357       .  S
C291        C292   1.408       .  A
C291        F297   1.357       .  S
C292        C293   1.407       .  A
C293        C294   1.403       .  A
C293        F296   1.358       .  S
C294        F298   1.358       .  S
C301        C302   1.411       .  A
C301        C306   1.405       .  A
C301        F319   1.358       .  S
C302        C303   1.408       .  A
C302        C307   1.497       .  S
C303        C304   1.403       .  A
C303        F308   1.357       .  S
C304        C305   1.406       .  A
C304        F320   1.358       .  S
C305        C306   1.406       .  A
C306        F309   1.358       .  S
C307        C310   1.409       .  A
C307        C314   1.409       .  A
C310        C311   1.401   1_556  A
C310        F315   1.358       .  S
C311        C312   1.407       .  A
C311        F317   1.358       .  S
C312        C313   1.411       .  A
C313        C314   1.409   1_554  A
C313        F316   1.358       .  S
C314        F318   1.358       .  S
C321        C322   1.407       .  A
C321        C326   1.400       .  A
C321        F339   1.358       .  S
C322        C323   1.408       .  A
C322        C327   1.491       .  S
C323        C324   1.405       .  A
C323        F328   1.358       .  S
C324        C325   1.408       .  A
C324        F340   1.358       .  S
C325        C326   1.405       .  A
C326        F329   1.358       .  S
C327        C330   1.406       .  A
C327        C334   1.405       .  A
C330        C331   1.398       .  A
C330        F335   1.359       .  S
C331        C332   1.413       .  A
C331        F337   1.358       .  S
C332        C333   1.416       .  A
C333        C334   1.407       .  A
C333        F336   1.357       .  S
C334        F338   1.357       .  S
C341        C342   1.406       .  A
C341        C346   1.402       .  A
C341        F359   1.358       .  S
C342        C343   1.406       .  A
C342        C347   1.489       .  S
C343        C344   1.408       .  A
C343        F348   1.357       .  S
C344        C345   1.410       .  A
C344        F360   1.358       .  S
C345        C346   1.407       .  A
C346        F349   1.358       .  S
C347        C350   1.407       .  A
C347        C354   1.404       .  A
C350        C351   1.406       .  A
C350        F355   1.357       .  S
C351        C352   1.407       .  A
C351        F357   1.357       .  S
C352        C353   1.409       .  A
C353        C354   1.402       .  A
C353        F356   1.358       .  S
C354        F358   1.358       .  S
C361        C362   1.407       .  A
C361        C366   1.400       .  A
C361        F379   1.358       .  S
C362        C363   1.409       .  A
C362        C367   1.493       .  S
C363        C364   1.407       .  A
C363        F368   1.357       .  S
C364        C365   1.406       .  A
C364        F380   1.357       .  S
C365        C366   1.406       .  A
C366        F369   1.358       .  S
C367        C370   1.406       .  A
C367        C374   1.406       .  A
C370        C371   1.399       .  A
C370        F375   1.358       .  S
C371        C372   1.412       .  A
C371        F377   1.358       .  S
C372        C373   1.413       .  A
C373        C374   1.409       .  A
C373        F376   1.357       .  S
C374        F378   1.357       .  S
C381        C382   1.407       .  A
C381        C386   1.406       .  A
C381        F399   1.357       .  S
C382        C383   1.406       .  A
C382        C387   1.491       .  S
C383        C384   1.397       .  A
C383        F388   1.359       .  S
C384        C385   1.413       .  A
C384        F400   1.358       .  S
C385        C386   1.413       .  A
C386        F389   1.357       .  S
C387        C390   1.408       .  A
C387        C394   1.408       .  A
C390        C391   1.402       .  A
C390        F395   1.357       .  S
C391        C392   1.406       .  A
C391        F397   1.358       .  S
C392        C393   1.406       .  A
C393        C394   1.399       .  A
C393        F396   1.358       .  S
C394        F398   1.358       .  S
C401        C402   1.408       .  A
C401        C406   1.408       .  A
C401        F419   1.357       .  S
C402        C403   1.406       .  A
C402        C407   1.495       .  S
C403        C404   1.401       .  A
C403        F408   1.358       .  S
C404        C405   1.409       .  A
C404        F420   1.358       .  S
C405        C406   1.410       .  A
C406        F409   1.357       .  S
C407        C410   1.405       .  A
C407        C414   1.406       .  A
C410        C411   1.408       .  A
C410        F415   1.357       .  S
C411        C412   1.416   1_556  A
C411        F417   1.358   1_556  S
C412        C413   1.413   1_554  A
C413        C414   1.401       .  A
C413        F416   1.358   1_556  S
C414        F418   1.358       .  S
C421        C422   1.402       .  A
C421        C426   1.399       .  A
C421        F439   1.358       .  S
C422        C423   1.405       .  A
C422        C427   1.490   1_545  S
C423        C424   1.411       .  A
C423        F428   1.357       .  S
C424        C425   1.416       .  A
C424        F440   1.357       .  S
C425        C426   1.415       .  A
C426        F429   1.358       .  S
C427        C430   1.406       .  A
C427        C434   1.406       .  A
C430        C431   1.405       .  A
C430        F435   1.357       .  S
C431        C432   1.408       .  A
C431        F437   1.358       .  S
C432        C433   1.407       .  A
C433        C434   1.403       .  A
C433        F436   1.358       .  S
C434        F438   1.358       .  S
C441        C442   1.406       .  A
C441        C446   1.405       .  A
C441        F459   1.358       .  S
C442        C443   1.408       .  A
C442        C447   1.492       .  S
C443        C444   1.402       .  A
C443        F448   1.358       .  S
C444        C445   1.409       .  A
C444        F460   1.358       .  S
C445        C446   1.411       .  A
C446        F449   1.358       .  S
C447        C450   1.408       .  A
C447        C454   1.406       .  A
C450        C451   1.405       .  A
C450        F455   1.358       .  S
C451        C452   1.410       .  A
C451        F457   1.357       .  S
C452        C453   1.410       .  A
C453        C454   1.402       .  A
C453        F456   1.358       .  S
C454        F458   1.358       .  S
C461        C462   1.409       .  A
C461        C466   1.402       .  A
C461        F479   1.358       .  S
C462        C463   1.409       .  A
C462        C467   1.497       .  S
C463        C464   1.408       .  A
C463        F468   1.357       .  S
C464        C465   1.408       .  A
C464        F480   1.357       .  S
C465        C466   1.407       .  A
C466        F469   1.358       .  S
C467        C470   1.409       .  A
C467        C474   1.409       .  A
C470        C471   1.405   1_556  A
C470        F475   1.358   1_655  S
C471        C472   1.408       .  A
C471        F477   1.358   1_655  S
C472        C473   1.408       .  A
C473        C474   1.404   1_554  A
C473        F476   1.357       .  S
C474        F478   1.358       .  S
C481        C482   1.409   1_565  A
C481        C486   1.401       .  A
C481        F499   1.358   1_565  S
C482        C483   1.406   1_545  A
C482        C487   1.493       .  S
C483        C484   1.403       .  A
C483        F488   1.358   1_565  S
C484        C485   1.413       .  A
C484        F500   1.358       .  S
C485        C486   1.410       .  A
C486        F489   1.358       .  S
C487        C490   1.408       .  A
C487        C494   1.410       .  A
C490        C491   1.398       .  A
C490        F495   1.358       .  S
C491        C492   1.406       .  A
C491        F497   1.358       .  S
C492        C493   1.406       .  A
C493        C494   1.404       .  A
C493        F496   1.358       .  S
C494        F498   1.358       .  S
C501        C502   1.411       .  A
C501        C506   1.408       .  A
C501        F519   1.358   1_655  S
C502        C503   1.412       .  A
C502        C507   1.507       .  S
C503        C504   1.406       .  A
C503        F508   1.358       .  S
C504        C505   1.410       .  A
C504        F520   1.358       .  S
C505        C506   1.412       .  A
C506        F509   1.358   1_655  S
C507        C510   1.411       .  A
C507        C514   1.413       .  A
C510        C511   1.403       .  A
C510        F515   1.357       .  S
C511        C512   1.407       .  A
C511        F517   1.358       .  S
C512        C513   1.407       .  A
C513        C514   1.408       .  A
C513        F516   1.358       .  S
C514        F518   1.358       .  S
C521        C522   1.411       .  A
C521        C526   1.403       .  A
C521        F539   1.358       .  S
C522        C523   1.409       .  A
C522        C527   1.498       .  S
C523        C524   1.405       .  A
C523        F528   1.358       .  S
C524        C525   1.410       .  A
C524        F540   1.358       .  S
C525        C526   1.406       .  A
C526        F529   1.358       .  S
C527        C530   1.411       .  A
C527        C534   1.409       .  A
C530        C531   1.406       .  A
C530        F535   1.358       .  S
C531        C532   1.408       .  A
C531        F537   1.357       .  S
C532        C533   1.406       .  A
C533        C534   1.401       .  A
C533        F536   1.358       .  S
C534        F538   1.357       .  S
C541        C542   1.409       .  A
C541        C546   1.403       .  A
C541        F559   1.358       .  S
C542        C543   1.407       .  A
C542        C547   1.494       .  S
C543        C544   1.404       .  A
C543        F548   1.358       .  S
C544        C545   1.410       .  A
C544        F560   1.358       .  S
C545        C546   1.409       .  A
C546        F549   1.358       .  S
C547        C550   1.410       .  A
C547        C554   1.406       .  A
C550        C551   1.407       .  A
C550        F555   1.358       .  S
C551        C552   1.409       .  A
C551        F557   1.357       .  S
C552        C553   1.409       .  A
C553        C554   1.399       .  A
C553        F556   1.358       .  S
C554        F558   1.358       .  S
C561        C562   1.405       .  A
C561        C566   1.404       .  A
C561        F579   1.357       .  S
C562        C563   1.406       .  A
C562        C567   1.488       .  S
C563        C564   1.398       .  A
C563        F568   1.358       .  S
C564        C565   1.412       .  A
C564        F580   1.358       .  S
C565        C566   1.412       .  A
C566        F569   1.357       .  S
C567        C570   1.408       .  A
C567        C574   1.407       .  A
C570        C571   1.403       .  A
C570        F575   1.358       .  S
C571        C572   1.407       .  A
C571        F577   1.358       .  S
C572        C573   1.405       .  A
C573        C574   1.399       .  A
C573        F576   1.358       .  S
C574        F578   1.358       .  S
C581        C582   1.408       .  A
C581        C586   1.405       .  A
C581        F599   1.358       .  S
C582        C583   1.409       .  A
C582        C587   1.497       .  S
C583        C584   1.402       .  A
C583        F588   1.358       .  S
C584        C585   1.409       .  A
C584        F600   1.358       .  S
C585        C586   1.410       .  A
C586        F589   1.358       .  S
C587        C590   1.406       .  A
C587        C594   1.411       .  A
C590        C591   1.400       .  A
C590        F595   1.358       .  S
C591        C592   1.409       .  A
C591        F597   1.358       .  S
C592        C593   1.408       .  A
C593        C594   1.407       .  A
C593        F596   1.357       .  S
C594        F598   1.358       .  S
C601        C602   1.404       .  A
C601        C606   1.407       .  A
C601        F619   1.357       .  S
C602        C603   1.405       .  A
C602        C607   1.490       .  S
C603        C604   1.401       .  A
C603        F608   1.358       .  S
C604        C605   1.414       .  A
C604        F620   1.358       .  S
C605        C606   1.416       .  A
C606        F609   1.357       .  S
C607        C610   1.406       .  A
C607        C614   1.406       .  A
C610        C611   1.405       .  A
C610        F615   1.358       .  S
C611        C612   1.409       .  A
C611        F617   1.357       .  S
C612        C613   1.407       .  A
C613        C614   1.402       .  A
C613        F616   1.358       .  S
C614        F618   1.358       .  S
C621        C622   1.405       .  A
C621        C626   1.405       .  A
C621        F639   1.358       .  S
C622        C623   1.403       .  A
C622        C627   1.482       .  S
C623        C624   1.399       .  A
C623        F628   1.358       .  S
C624        C625   1.407       .  A
C624        F640   1.358       .  S
C625        C626   1.409       .  A
C626        F629   1.357       .  S
C627        C630   1.403   1_545  A
C627        C634   1.403   1_545  A
C630        C631   1.397       .  A
C630        F635   1.358   1_565  S
C631        C632   1.412       .  A
C631        F637   1.358       .  S
C632        C633   1.414       .  A
C633        C634   1.406       .  A
C633        F636   1.357       .  S
C634        F638   1.357   1_565  S
C641        C642   1.409       .  A
C641        C646   1.408       .  A
C641        F659   1.357       .  S
C642        C643   1.408       .  A
C642        C647   1.498       .  S
C643        C644   1.400       .  A
C643        F648   1.358       .  S
C644        C645   1.409       .  A
C644        F660   1.358       .  S
C645        C646   1.412       .  A
C646        F649   1.358       .  S
C647        C650   1.410       .  A
C647        C654   1.408       .  A
C650        C651   1.405       .  A
C650        F655   1.358       .  S
C651        C652   1.406       .  A
C651        F657   1.358       .  S
C652        C653   1.409       .  A
C653        C654   1.403       .  A
C653        F656   1.358       .  S
C654        F658   1.358       .  S
C661        C662   1.405       .  A
C661        C666   1.412       .  A
C661        F679   1.357       .  S
C662        C663   1.404       .  A
C662        C667   1.493       .  S
C663        C664   1.400       .  A
C663        F668   1.358       .  S
C664        C665   1.413       .  A
C664        F680   1.357       .  S
C665        C666   1.418       .  A
C666        F669   1.357       .  S
C667        C670   1.405       .  A
C667        C674   1.408       .  A
C670        C671   1.400   1_556  A
C670        F675   1.358       .  S
C671        C672   1.408       .  A
C671        F677   1.358       .  S
C672        C673   1.409       .  A
C673        C674   1.410   1_554  A
C673        F676   1.357       .  S
C674        F678   1.357       .  S
