geometry optimzed in LAMMPS
_audit_creation_date              2020-11-30 
_audit_creation_method            'lammps2cif' 
_symmetry_space_group_name_H-M    'P1' 
_symmetry_Int_Tables_number       1 
_symmetry_cell_setting            triclinic 
loop_ 
_symmetry_equiv_pos_as_xyz 
  x,y,z 
_cell_length_a                    29.76650791 
_cell_length_b                    29.869175464069095 
_cell_length_c                    29.767329911461957 
_cell_angle_alpha                 90.17491512186136 
_cell_angle_beta                  90.06534486951304 
_cell_angle_gamma                 89.44941867019887 
loop_ 
_atom_site_label 
_atom_site_type_symbol 
_atom_site_fract_x 
_atom_site_fract_y 
_atom_site_fract_z 
_atom_site_charge 
C1          C  0.81042259  0.54592987  0.71901733     0.02100
C2          C  0.85682030  0.53647617  0.71399603     0.02100
C3          C  0.87865361  0.51289267  0.74930303    -0.18500
C4          C  0.85490956  0.49617281  0.78720084     0.02100
C5          C  0.80814028  0.50632510  0.79028359     0.02100
C6          C  0.78846127  0.53361721  0.75807918    -0.18500
H7          H  0.75266063  0.54083440  0.76098333     0.04100
H8          H  0.91454814  0.50706746  0.74715706     0.04100
C9          C  0.51104263  0.71907113  0.80998039     0.02100
C10         C  0.51060403  0.71774868  0.85774249     0.02100
C11         C  0.49513725  0.75668018  0.88094848    -0.18500
C12         C  0.47834983  0.79506521  0.85806299     0.02100
C13         C  0.48180609  0.79553571  0.81050694     0.02100
C14         C  0.49840322  0.75812643  0.78820317    -0.18500
H15         H  0.50021774  0.75897579  0.75166362     0.04100
H16         H  0.49617479  0.75731192  0.91726186     0.04100
C17         C  0.78939839  0.82259741  0.51305464     0.02100
C18         C  0.78517946  0.86907255  0.50467707     0.02100
C19         C  0.74632124  0.89140052  0.52115665    -0.18500
C20         C  0.71049040  0.86789260  0.54175900     0.02100
C21         C  0.71630893  0.82115250  0.54926381     0.02100
C22         C  0.75749592  0.80123844  0.53917788    -0.18500
H23         H  0.76157143  0.76539591  0.54453424     0.04100
H24         H  0.74310372  0.92718396  0.51601728     0.04100
Fe25       Fe  0.61159693  0.45950465  0.96356262     1.65800
Fe26       Fe  0.53373721  0.47512441  0.88567751     1.73200
Fe27       Fe  0.53243189  0.38399153  0.94906669     1.54400
O28         O  0.58966575  0.35201154  0.93513646    -0.81900
O29         O  0.46535731  0.45644657  0.90187746    -0.80200
O30         O  0.63423221  0.39238897  0.97859276    -0.84400
O31         O  0.57520622  0.46412522  0.02037291    -0.79200
O32         O  0.51506506  0.36831640  0.88102856    -0.81000
O33         O  0.52678408  0.52586498  0.93009342    -0.83700
C34         C  0.56136454  0.42971163  0.04039851     0.97000
C35         C  0.62515688  0.35610296  0.95724209     1.04500
O36         O  0.55906870  0.43916581  0.93225084    -1.12700
O37         O  0.60098038  0.49430087  0.86413572    -0.75200
O38         O  0.64710995  0.45360523  0.90741635    -0.78600
O39         O  0.54969382  0.39425038  0.01868701    -0.79300
C40         C  0.64020607  0.47744252  0.87342729     0.95900
O41         O  0.59791161  0.52954252  0.94927127    -0.77300
O42         O  0.53971859  0.42595903  0.84062385    -0.82500
C43         C  0.44879864  0.43541352  0.93575173     0.98500
C44         C  0.52689137  0.38618037  0.84364187     1.04500
O45         O  0.47327574  0.41391088  0.96275435    -0.78100
C46         C  0.56074983  0.54898950  0.93854879     1.02800
Fe47       Fe  0.54455690  0.54138208  0.61314500     1.65800
Fe48       Fe  0.53118415  0.62089373  0.53725544     1.73200
Fe49       Fe  0.61929428  0.55244593  0.53224470     1.54400
O50         O  0.65397378  0.56424612  0.58753904    -0.81900
O51         O  0.55043357  0.60611864  0.46858091    -0.80200
O52         O  0.61180264  0.52537848  0.63471002    -0.84400
O53         O  0.53813525  0.48539539  0.57634747    -0.79200
O54         O  0.63716263  0.62035934  0.51562593    -0.81000
O55         O  0.47883636  0.57921878  0.52884246    -0.83700
C56         C  0.57139689  0.46318024  0.56215721     0.97000
C57         C  0.64886027  0.54438646  0.62399745     1.04500
O58         O  0.56556014  0.57222034  0.56113569    -1.12700
O59         O  0.51130694  0.64174433  0.60460496    -0.75200
O60         O  0.55102658  0.59659785  0.64955583    -0.78600
O61         O  0.60763343  0.48282894  0.54940497    -0.79300
C62         C  0.52833772  0.63161851  0.64334090     0.95900
O63         O  0.47504013  0.55692266  0.59934519    -0.77300
O64         O  0.58239957  0.66271118  0.54520123    -0.82500
C65         C  0.56801704  0.57052043  0.45117333     0.98500
C66         C  0.62183500  0.65803637  0.53086218     1.04500
O67         O  0.58567261  0.54062138  0.47514072    -0.78100
C68         C  0.45583773  0.56849214  0.56245042     1.02800
Fe69       Fe  0.46538815  0.89940059  0.54227415     1.65800
Fe70       Fe  0.37610206  0.96586436  0.53470036     1.73200
Fe71       Fe  0.44607819  0.97584988  0.62027686     1.54400
O72         O  0.43828871  0.91880703  0.65301567    -0.81900
O73         O  0.38647113  0.03505063  0.55315785    -0.80200
O74         O  0.48372826  0.87804086  0.60924311    -0.84400
O75         O  0.51598395  0.94358453  0.53747239    -0.79200
O76         O  0.37782336  0.99090738  0.63888514    -0.81000
O77         O  0.41295570  0.97874419  0.47971239    -0.83700
C78         C  0.53759557  0.95170417  0.57282258     0.97000
C79         C  0.46383283  0.88571624  0.64700995     1.04500
O80         O  0.42836496  0.94645981  0.56603491    -1.12700
O81         O  0.36127193  0.89774314  0.51555325    -0.75200
O82         O  0.41557577  0.85588640  0.54690369    -0.78600
O83         O  0.51657833  0.96144375  0.60933261    -0.79300
C84         C  0.37765878  0.85975811  0.52870817     0.95900
O85         O  0.44783617  0.91332419  0.47337168    -0.77300
O86         O  0.33756340  0.95394648  0.58818565    -0.82500
C87         C  0.42153726  0.05484010  0.56875218     0.98500
C88         C  0.34099759  0.97294640  0.62562984     1.04500
O89         O  0.45333032  0.03352842  0.58707150    -0.78100
C90         C  0.42986209  0.94835013  0.45573544     1.02800
C91         C  0.52702395  0.29175651  0.68137635     0.02100
C92         C  0.52176729  0.29330746  0.63410431     0.02100
C93         C  0.50130193  0.25614917  0.61269942    -0.18500
C94         C  0.48284936  0.22011868  0.63756142     0.02100
C95         C  0.48914786  0.22008983  0.68489578     0.02100
C96         C  0.51350819  0.25415836  0.70479920    -0.18500
H97         H  0.51823364  0.25346382  0.74106059     0.04100
H98         H  0.49892974  0.25556774  0.57642584     0.04100
Fe99       Fe  0.38201548  0.05119324  0.97129994     1.65800
Fe100      Fe  0.45009850  0.03836122  0.88470537     1.73200
Fe101      Fe  0.46304165  0.12330034  0.95420861     1.54400
O102        O  0.40769805  0.16022718  0.94504373    -0.81900
O103        O  0.51987807  0.05520285  0.89505719    -0.80200
O104        O  0.36444150  0.11919476  0.98960874    -0.84400
O105        O  0.42473334  0.04359414  0.02332593    -0.79200
O106        O  0.47992945  0.13968277  0.88578588    -0.81000
O107        O  0.46078661  0.98432313  0.92388320    -0.83700
C108        C  0.43430000  0.07828889  0.04522253     0.97000
C109        C  0.37538210  0.15687880  0.97180752     1.04500
O110        O  0.43090783  0.07159914  0.93575008    -1.12700
O111        O  0.38129185  0.02141298  0.86899177    -0.75200
O112        O  0.34007297  0.05868216  0.91985566    -0.78600
O113        O  0.44691188  0.11378294  0.02455443    -0.79300
C114        C  0.34353389  0.03766486  0.88339457     0.95900
O115        O  0.39309876  0.98166940  0.95413109    -0.77300
O116        O  0.44056307  0.09131824  0.84484865    -0.82500
C117        C  0.54039587  0.07046501  0.92996774     0.98500
C118        C  0.46306816  0.12651686  0.84813989     1.04500
O119        O  0.51884228  0.08558496  0.96319925    -0.78100
C120        C  0.42850941  0.96203731  0.93878666     1.02800
C121        C  0.72015576  0.19108237  0.94974120     0.02100
C122        C  0.71481446  0.14563688  0.96220151     0.02100
C123        C  0.75195080  0.12332802  0.98241083    -0.18500
C124        C  0.79170982  0.14650920  0.99367921     0.02100
C125        C  0.79600934  0.19138344  0.97881838     0.02100
C126        C  0.76214322  0.21046706  0.95295372    -0.18500
H127        H  0.76563280  0.24525930  0.94283815     0.04100
H128        H  0.74935275  0.08827511  0.99113940     0.04100
C129        C  0.13057017  0.98427478  0.71948786     0.02100
C130        C  0.17792678  0.97947182  0.72232626     0.02100
C131        C  0.19967246  0.99122443  0.76172332    -0.18500
C132        C  0.17798833  0.01361313  0.79652577     0.02100
C133        C  0.13057641  0.01885192  0.79522826     0.02100
C134        C  0.10735527  0.00197308  0.75730902    -0.18500
H135        H  0.07099814  0.00342414  0.75703265     0.04100
H136        H  0.23599899  0.98696394  0.76350184     0.04100
C137        C  0.99077199  0.79957783  0.18532704     0.02100
C138        C  0.99476937  0.80091817  0.13771704     0.02100
C139        C  0.97878741  0.76358930  0.11286374    -0.18500
C140        C  0.96224718  0.72468762  0.13453203     0.02100
C141        C  0.95756571  0.72564143  0.18183827     0.02100
C142        C  0.96922349  0.76386116  0.20536594    -0.18500
H143        H  0.96559502  0.76388670  0.24176008     0.04100
H144        H  0.98083847  0.76417924  0.07654352     0.04100
C145        C  0.29051317  0.69613952  0.50574193     0.02100
C146        C  0.28907046  0.64895113  0.51022098     0.02100
C147        C  0.25011497  0.62667426  0.49480222    -0.18500
C148        C  0.21328812  0.65038907  0.47581897     0.02100
C149        C  0.21680767  0.69730668  0.47050658     0.02100
C150        C  0.25555135  0.71858320  0.48444435    -0.18500
H151        H  0.25736139  0.75482351  0.48147817     0.04100
H152        H  0.24828582  0.59060259  0.49796339     0.04100
C153        C  0.68415228  0.46390106  0.21131350     0.02100
C154        C  0.63658099  0.46503765  0.21210131     0.02100
C155        C  0.61504696  0.48439723  0.25009954    -0.18500
C156        C  0.63977388  0.50310782  0.28625672     0.02100
C157        C  0.68728289  0.50154253  0.28384959     0.02100
C158        C  0.70796090  0.48162299  0.24718450    -0.18500
H159        H  0.74449194  0.48160663  0.24581244     0.04100
H160        H  0.57867717  0.48588946  0.25104170     0.04100
Fe161      Fe  0.95540769  0.53972989  0.38379919     1.65800
Fe162      Fe  0.95749787  0.62929822  0.44936577     1.73200
Fe163      Fe  0.88014256  0.55281287  0.46420451     1.54400
O164        O  0.84315440  0.55852360  0.40857940    -0.81900
O165        O  0.94141850  0.61813068  0.52008380    -0.80200
O166        O  0.88914427  0.51814279  0.36471661    -0.84400
O167        O  0.96602067  0.48933705  0.42753091    -0.79200
O168        O  0.85796453  0.61954806  0.48195315    -0.81000
O169        O  0.01711041  0.59857099  0.46077544    -0.83700
C170        C  0.93351640  0.46540512  0.43888898     0.97000
C171        C  0.85016519  0.53491250  0.37420347     1.04500
O172        O  0.93102444  0.57440141  0.43188786    -1.12700
O173        O  0.97320995  0.64564702  0.38062572    -0.75200
O174        O  0.94569365  0.58918644  0.33994314    -0.78600
O175        O  0.89557588  0.48348890  0.44925874    -0.79300
C176        C  0.95985298  0.62853191  0.34310317     0.95900
O177        O  0.02296187  0.56058605  0.39664548    -0.77300
O178        O  0.89938207  0.66120502  0.43715570    -0.82500
C179        C  0.92984512  0.58217975  0.54111341     0.98500
C180        C  0.86713823  0.65732357  0.46368296     1.04500
O181        O  0.91818094  0.54765203  0.51979410    -0.78100
C182        C  0.04072130  0.57999661  0.43079899     1.02800
Fe183      Fe  0.10858489  0.96206826  0.46674732     1.65800
Fe184      Fe  0.02334332  0.89255001  0.45831139     1.73200
Fe185      Fe  0.03359195  0.97593470  0.38670732     1.54400
O186        O  0.02605806  0.02935598  0.42740896    -0.81900
O187        O  0.00357460  0.87493332  0.39027032    -0.80200
O188        O  0.09661417  0.03197470  0.44963816    -0.84400
O189        O  0.14440883  0.95200001  0.41121177    -0.79200
O190        O  0.96415428  0.95932894  0.40036890    -0.81000
O191        O  0.07593363  0.85192118  0.44889695    -0.83700
C192        C  0.13981681  0.97714107  0.37789768     0.97000
C193        C  0.06024625  0.05193263  0.43677976     1.04500
O194        O  0.05601557  0.94240504  0.43644757    -1.12700
O195        O  0.04248474  0.90458334  0.52731084    -0.75200
O196        O  0.07290030  0.97197106  0.52344522    -0.78600
O197        O  0.10125464  0.99404256  0.36684871    -0.79300
C198        C  0.05802550  0.93998080  0.54634941     0.95900
O199        O  0.12716087  0.89417747  0.48331284    -0.77300
O200        O  0.96998258  0.93292180  0.46930456    -0.82500
C201        C  0.01856441  0.88758332  0.35156891     0.98500
C202        C  0.94603256  0.94593138  0.43709738     1.04500
O203        O  0.04066054  0.92284804  0.34665506    -0.78100
C204        C  0.11364480  0.85645646  0.46725155     1.02800
Fe205      Fe  0.96228897  0.38961580  0.03884113     1.65800
Fe206      Fe  0.88245825  0.46413300  0.01900955     1.73200
Fe207      Fe  0.94477378  0.47139968  0.11074670     1.54400
O208        O  0.93312977  0.41612072  0.14643454    -0.81900
O209        O  0.89265760  0.53284120  0.03866965    -0.80200
O210        O  0.97845733  0.37165239  0.10746999    -0.84400
O211        O  0.01710164  0.42756371  0.03309499    -0.79200
O212        O  0.87534845  0.48664437  0.12399384    -0.81000
O213        O  0.92894890  0.47193772  0.97055719    -0.83700
C214        C  0.03743777  0.44074491  0.06770100     0.97000
C215        C  0.96021298  0.38388964  0.14480224     1.04500
O216        O  0.92884310  0.44134599  0.05703922    -1.12700
O217        O  0.86556026  0.39654583  0.99872916    -0.75200
O218        O  0.90674200  0.35333873  0.04448118    -0.78600
O219        O  0.01549896  0.45490673  0.10240125    -0.79300
C220        C  0.87466281  0.35845834  0.01735512     0.95900
O221        O  0.94914984  0.40082034  0.96832844    -0.77300
O222        O  0.83678840  0.45677111  0.06680719    -0.82500
C223        C  0.92604055  0.55146786  0.05848897     0.98500
C224        C  0.83882218  0.47172411  0.10622319     1.04500
O225        O  0.95659459  0.52835009  0.07655876    -0.78100
C226        C  0.93931016  0.43763043  0.94824313     1.02800
C227        C  0.30411960  0.01851282  0.29417923     0.02100
C228        C  0.35143550  0.01292725  0.29333926     0.02100
C229        C  0.37473061  0.02975986  0.25564387    -0.18500
C230        C  0.35185116  0.04796505  0.21799918     0.02100
C231        C  0.30488978  0.05637782  0.22192151     0.02100
C232        C  0.28323695  0.04435129  0.26140989    -0.18500
H233        H  0.24707352  0.04935759  0.26388183     0.04100
H234        H  0.41098340  0.02711223  0.25494958     0.04100
Fe235      Fe  0.03517895  0.05267246  0.12342659     1.65800
Fe236      Fe  0.03704328  0.13153261  0.04464577     1.73200
Fe237      Fe  0.11256653  0.04802404  0.04324731     1.54400
O238        O  0.13463771  0.02343698  0.10252152    -0.81900
O239        O  0.02858934  0.10154705  0.98085317    -0.80200
O240        O  0.09966546  0.06272610  0.15369507    -0.84400
O241        O  0.04981411  0.98750058  0.10606066    -0.79200
O242        O  0.14780820  0.10950237  0.05471532    -0.81000
O243        O  0.97231326  0.11654382  0.06216697    -0.83700
C244        C  0.05940186  0.96691830  0.06993356     0.97000
C245        C  0.13625532  0.04667886  0.13748368     1.04500
O246        O  0.05933874  0.07558274  0.06822098    -1.12700
O247        O  0.04955497  0.16305730  0.10798409    -0.75200
O248        O  0.01434124  0.11249574  0.14767024    -0.78600
O249        O  0.07803511  0.98648696  0.03636477    -0.79300
C250        C  0.03424186  0.14917881  0.14554517     0.95900
O251        O  0.97114821  0.04815099  0.09307627    -0.77300
O252        O  0.09714087  0.15252703  0.02210659    -0.82500
C253        C  0.06027686  0.08082389  0.95982996     0.98500
C254        C  0.13457671  0.14810124  0.04087596     1.04500
O255        O  0.09559667  0.06667048  0.97920681    -0.78100
C256        C  0.95145617  0.08174939  0.07429714     1.02800
C257        C  0.00853509  0.30789775  0.31361558     0.02100
C258        C  0.99359812  0.30220327  0.35843269     0.02100
C259        C  0.00865125  0.26349990  0.38148771    -0.18500
C260        C  0.03199522  0.22846080  0.35892607     0.02100
C261        C  0.04825356  0.23685499  0.31478707     0.02100
C262        C  0.04155161  0.27929207  0.29651460    -0.18500
H263        H  0.05304555  0.28550107  0.26246695     0.04100
H264        H  0.00080511  0.26010594  0.41681510     0.04100
C265        C  0.29517117  0.31994134  0.02327606     0.02100
C266        C  0.28860004  0.36543585  0.01228914     0.02100
C267        C  0.24875915  0.38640876  0.02776239    -0.18500
C268        C  0.21453295  0.36199657  0.05014899     0.02100
C269        C  0.22339116  0.31636586  0.06179639     0.02100
C270        C  0.26605183  0.29887544  0.05298500    -0.18500
H271        H  0.27254955  0.26376447  0.06040272     0.04100
H272        H  0.24296653  0.42131795  0.01960419     0.04100
C273        C  0.16947875  0.26859934  0.02321271    -0.26500
C274        C  0.18910127  0.28012241  0.06435598    -0.14600
C275        C  0.19139736  0.24682126  0.09842629     0.36000
C276        C  0.17578299  0.20293174  0.08962073    -0.26000
C277        C  0.15948989  0.19084333  0.04702004    -0.15200
C278        C  0.15683549  0.22463572  0.01348116     0.37100
N279        N  0.14394810  0.21487561  0.96805542    -0.89400
H280        H  0.16834236  0.29307663  0.99641553     0.18200
H281        H  0.17602416  0.17822539  0.11615754     0.18200
N282        N  0.20998708  0.25758125  0.14170342    -0.88500
H283        H  0.10989419  0.20709230  0.96657147     0.35600
H284        H  0.16305498  0.18764504  0.95647675     0.40700
H285        H  0.24410228  0.26432554  0.13768994     0.40300
H286        H  0.20809028  0.23005091  0.16321494     0.35200
C287        C  0.01493788  0.17948066  0.26771068    -0.26500
C288        C  0.05426239  0.20198170  0.27934138    -0.14600
C289        C  0.08821494  0.20653953  0.24603957     0.36000
C290        C  0.08001663  0.19259632  0.20146347    -0.26000
C291        C  0.03921536  0.17279088  0.18941865    -0.15200
C292        C  0.00639093  0.16629113  0.22330915     0.37100
N293        N  0.96338304  0.14774737  0.21206354    -0.89400
H294        H  0.98817431  0.17714957  0.29215985     0.18200
H295        H  0.10600642  0.19649544  0.17637469     0.18200
N296        N  0.13055102  0.22693438  0.25623987    -0.88500
H297        H  0.94721372  0.17066463  0.19093517     0.35600
H298        H  0.94316439  0.14480869  0.24058036     0.40700
H299        H  0.13281333  0.23471692  0.29041476     0.40300
H300        H  0.13220985  0.25702052  0.23849121     0.35200
C301        C  0.23974421  0.09932247  0.19271834    -0.26500
C302        C  0.27271053  0.06586697  0.18478751    -0.14600
C303        C  0.26141916  0.02977750  0.15681454     0.36000
C304        C  0.21689441  0.02444227  0.14263897    -0.26000
C305        C  0.18230570  0.05438571  0.15594046    -0.15200
C306        C  0.19439085  0.09311293  0.18010340     0.37100
N307        N  0.16078507  0.12548232  0.19263828    -0.89400
H308        H  0.24809328  0.12707471  0.21462773     0.18200
H309        H  0.20916922  0.99526218  0.12243709     0.18200
N310        N  0.29418385  0.99590668  0.14644323    -0.88500
H311        H  0.17553251  0.15262076  0.20906995     0.35600
H312        H  0.13967912  0.11037392  0.21606253     0.40700
H313        H  0.29663575  0.99337467  0.11149396     0.40300
H314        H  0.28266723  0.96534038  0.15874034     0.35200
C315        C  0.15031541  0.40741678  0.02098026    -0.26500
C316        C  0.17005172  0.38493294  0.05746366    -0.14600
C317        C  0.14912774  0.38896144  0.10013057     0.36000
C318        C  0.10781747  0.41202231  0.10445348    -0.26000
C319        C  0.08684159  0.43204819  0.06720301    -0.15200
C320        C  0.10971782  0.43138311  0.02544240     0.37100
N321        N  0.09038604  0.45346030  0.98699240    -0.89400
H322        H  0.16647051  0.40576936  0.98840008     0.18200
H323        H  0.09082159  0.41173178  0.13653733     0.18200
N324        N  0.16901401  0.37039069  0.13975234    -0.88500
H325        H  0.11084455  0.44931646  0.95872467     0.35600
H326        H  0.08926268  0.48776768  0.99400697     0.40700
H327        H  0.20170720  0.38251527  0.14279260     0.40300
H328        H  0.17040006  0.33571659  0.13624396     0.35200
C329        C  0.95434597  0.32344659  0.20159588    -0.26500
C330        C  0.97216983  0.36459615  0.18893763    -0.14600
C331        C  0.99347893  0.39141879  0.22213355     0.36000
C332        C  0.00009306  0.37494967  0.26567930    -0.26000
C333        C  0.98455886  0.33270239  0.27771110    -0.15200
C334        C  0.96010098  0.30727266  0.24562799     0.37100
N335        N  0.94478312  0.26320089  0.25700621    -0.89400
H336        H  0.93594906  0.30391087  0.17710359     0.18200
H337        H  0.01995888  0.39403434  0.28936934     0.18200
N338        N  0.00997226  0.43517363  0.21221789    -0.88500
H339        H  0.92865367  0.24835222  0.22961850     0.35600
H340        H  0.92078604  0.26637849  0.28238647     0.40700
H341        H  0.98311577  0.45567931  0.20238795     0.40300
H342        H  0.03268332  0.43248064  0.18567391     0.35200
C343        C  0.08356834  0.16668907  0.38551719    -0.26500
C344        C  0.03977742  0.18465947  0.38235862    -0.14600
C345        C  0.00415724  0.16043667  0.40203364     0.36000
C346        C  0.01305730  0.11985957  0.42390196    -0.26000
C347        C  0.05656763  0.10082633  0.42582177    -0.15200
C348        C  0.09211627  0.12512389  0.40667411     0.37100
N349        N  0.13659601  0.10684451  0.40645897    -0.89400
H350        H  0.11129925  0.18463989  0.37069539     0.18200
H351        H  0.98479746  0.10159789  0.43731943     0.18200
N352        N  0.95805516  0.17416725  0.39766753    -0.88500
H353        H  0.15766109  0.12982193  0.42233236     0.35600
H354        H  0.14695852  0.10363573  0.37303676     0.40700
H355        H  0.95081891  0.17964654  0.36376328     0.40300
H356        H  0.95248123  0.20367493  0.41567174     0.35200
C357        C  0.19629952  0.96366438  0.31831395    -0.26500
C358        C  0.18256564  0.98835675  0.35590745    -0.14600
C359        C  0.21529762  0.01253394  0.38031272     0.36000
C360        C  0.25901524  0.01695477  0.36328424    -0.26000
C361        C  0.27166214  0.99541202  0.32348742    -0.15200
C362        C  0.24069197  0.96582171  0.30262202     0.37100
N363        N  0.25246511  0.94038993  0.26317525    -0.89400
H364        H  0.17274100  0.94162691  0.30172029     0.18200
H365        H  0.28217258  0.03959417  0.37961685     0.18200
N366        N  0.20440325  0.03214605  0.42293420    -0.88500
H367        H  0.24828592  0.90655867  0.27087126     0.35600
H368        H  0.28647321  0.94395028  0.25547322     0.40700
H369        H  0.21291436  0.06597611  0.42183122     0.40300
H370        H  0.22495236  0.01705722  0.44716204     0.35200
C371        C  0.91205697  0.39280982  0.40347069    -0.26500
C372        C  0.94076119  0.41650945  0.43229923    -0.14600
C373        C  0.98370337  0.39818523  0.44145145     0.36000
C374        C  0.99918335  0.36040300  0.41773659    -0.26000
C375        C  0.97254000  0.33961589  0.38495749    -0.15200
C376        C  0.92734060  0.35443566  0.38007808     0.37100
N377        N  0.89624295  0.33162241  0.35167705    -0.89400
H378        H  0.87892143  0.40623634  0.39606806     0.18200
H379        H  0.03313848  0.34834852  0.42368306     0.18200
N380        N  0.01280876  0.41971415  0.47305695    -0.88500
H381        H  0.90672560  0.33472244  0.31851215     0.35600
H382        H  0.89625994  0.29776432  0.36047976     0.40700
H383        H  0.04220079  0.42874720  0.45629441     0.40300
H384        H  0.02148149  0.39640109  0.49779993     0.35200
C385        C  0.74646722  0.55409961  0.30479633    -0.26500
C386        C  0.71986196  0.51754127  0.31760513    -0.14600
C387        C  0.73757391  0.48615369  0.34834909     0.36000
C388        C  0.78201564  0.49059367  0.36371787    -0.26000
C389        C  0.80946454  0.52522641  0.34832732    -0.15200
C390        C  0.79114949  0.55806476  0.31963532     0.37100
N391        N  0.81805362  0.59535121  0.30592621    -0.89400
H392        H  0.73357525  0.57731524  0.27988819     0.18200
H393        H  0.79528061  0.46716499  0.38823387     0.18200
N394        N  0.71088338  0.44882183  0.36231767    -0.88500
H395        H  0.79965918  0.61665108  0.28484234     0.35600
H396        H  0.84483111  0.58268871  0.28688270     0.40700
H397        H  0.70559410  0.42831133  0.33432660     0.40300
H398        H  0.72846385  0.42931926  0.38569447     0.35200
C399        C  0.79162700  0.43245232  0.16037262    -0.26500
C400        C  0.79655429  0.46866892  0.13118706    -0.14600
C401        C  0.75773610  0.49299760  0.11768230     0.36000
C402        C  0.71662053  0.48537097  0.13901559    -0.26000
C403        C  0.71311914  0.45273204  0.17248759    -0.15200
C404        C  0.75000063  0.42357958  0.18015394     0.37100
N405        N  0.74629136  0.38804989  0.21210846    -0.89400
H406        H  0.82017997  0.41087884  0.16777810     0.18200
H407        H  0.68856565  0.50785369  0.13254392     0.18200
N408        N  0.75939988  0.52646733  0.08340380    -0.88500
H409        H  0.76978963  0.39344051  0.23765775     0.35600
H410        H  0.75484921  0.35808101  0.19587004     0.40700
H411        H  0.76998217  0.51144401  0.05343660     0.40300
H412        H  0.78296306  0.55034079  0.09285984     0.35200
C413        C  0.15546187  0.63071455  0.41788470    -0.26500
C414        C  0.17221214  0.62580440  0.46175812    -0.14600
C415        C  0.14881386  0.59849301  0.49215477     0.36000
C416        C  0.10824088  0.57864463  0.47905981    -0.26000
C417        C  0.08983688  0.58591540  0.43613530    -0.15200
C418        C  0.11456702  0.61144440  0.40498985     0.37100
N419        N  0.09744791  0.62101287  0.36114173    -0.89400
H420        H  0.17339881  0.65116948  0.39398953     0.18200
H421        H  0.08920863  0.56023243  0.50381159     0.18200
N422        N  0.16456220  0.59323192  0.53733502    -0.88500
H423        H  0.06675659  0.63795308  0.36458616     0.35600
H424        H  0.09196072  0.59054710  0.34477488     0.40700
H425        H  0.16915454  0.55902438  0.54334313     0.40300
H426        H  0.13954585  0.60509517  0.55907081     0.35200
C427        C  0.16814677  0.80501488  0.43192965    -0.26500
C428        C  0.14071285  0.81509897  0.46883190    -0.14600
C429        C  0.12906039  0.78039261  0.49852888     0.36000
C430        C  0.14894329  0.73780156  0.49390978    -0.26000
C431        C  0.17981679  0.72887308  0.45944368    -0.15200
C432        C  0.18730530  0.76228929  0.42650317     0.37100
N433        N  0.21640631  0.75450764  0.38871963    -0.89400
H434        H  0.17416785  0.83035768  0.40669437     0.18200
H435        H  0.14317428  0.71285756  0.51959887     0.18200
N436        N  0.09721912  0.78842086  0.53369794    -0.88500
H437        H  0.24475324  0.77452035  0.39286829     0.35600
H438        H  0.22747522  0.72122303  0.38765768     0.40700
H439        H  0.11285967  0.78102266  0.56429523     0.40300
H440        H  0.07067917  0.76612080  0.52943414     0.35200
C441        C  0.07648549  0.89035586  0.09630326    -0.26500
C442        C  0.04812305  0.91857065  0.07102564    -0.14600
C443        C  0.00310101  0.90518772  0.06428945     0.36000
C444        C  0.98696104  0.86604631  0.08478672    -0.26000
C445        C  0.01444667  0.83996454  0.11315760    -0.15200
C446        C  0.06029179  0.85113696  0.11701416     0.37100
N447        N  0.09006663  0.82319873  0.14280260    -0.89400
H448        H  0.11066419  0.90079595  0.10277660     0.18200
H449        H  0.95200083  0.85721186  0.08038839     0.18200
N450        N  0.97233660  0.93226000  0.03887607    -0.88500
H451        H  0.12257346  0.83614126  0.14279314     0.35600
H452        H  0.09193395  0.79207049  0.12671145     0.40700
H453        H  0.98572840  0.93650847  0.00673224     0.40300
H454        H  0.96963378  0.96371834  0.05413228     0.35200
C455        C  0.90695211  0.66670066  0.10927495    -0.26500
C456        C  0.95083733  0.68376640  0.10790598    -0.14600
C457        C  0.98395949  0.65976405  0.08351666     0.36000
C458        C  0.97305436  0.61925071  0.06247374    -0.26000
C459        C  0.92990001  0.60067078  0.06583941    -0.15200
C460        C  0.89627490  0.62519554  0.08900990     0.37100
N461        N  0.85244666  0.60645116  0.09484712    -0.89400
H462        H  0.88146493  0.68481302  0.12811656     0.18200
H463        H  0.99967480  0.60022780  0.04620578     0.18200
N464        N  0.02984871  0.67378870  0.08243129    -0.88500
H465        H  0.83143766  0.62889119  0.11205441     0.35600
H466        H  0.85605459  0.57844534  0.11555769     0.40700
H467        H  0.04132427  0.67740118  0.11544572     0.40300
H468        H  0.03161514  0.70469773  0.06631317     0.35200
C469        C  0.98916411  0.66324896  0.22456821    -0.26500
C470        C  0.95025436  0.68694479  0.21181009    -0.14600
C471        C  0.91367418  0.68894424  0.24204446     0.36000
C472        C  0.91889049  0.67229844  0.28596879    -0.26000
C473        C  0.95963951  0.65306797  0.30020583    -0.15200
C474        C  0.99391726  0.64568466  0.26818323     0.37100
N475        N  0.03368331  0.62088910  0.28022259    -0.89400
H476        H  0.01750998  0.66200510  0.20175160     0.18200
H477        H  0.89094293  0.67414193  0.30924731     0.18200
N478        N  0.87217959  0.71005146  0.22860896    -0.88500
H479        H  0.05605909  0.61930449  0.25319818     0.35600
H480        H  0.02418386  0.58794608  0.28678570     0.40700
H481        H  0.87806462  0.74413393  0.22382995     0.40300
H482        H  0.84836483  0.70791122  0.25428980     0.35200
C483        C  0.97992646  0.86634861  0.23217927    -0.26500
C484        C  0.00877711  0.83143465  0.21896656    -0.14600
C485        C  0.04066294  0.81488153  0.25076269     0.36000
C486        C  0.04065878  0.83146343  0.29492099    -0.26000
C487        C  0.00949174  0.86393239  0.30895724    -0.15200
C488        C  0.97997318  0.88292881  0.27640771     0.37100
N489        N  0.94881788  0.91844625  0.28710238    -0.89400
H490        H  0.95437949  0.87823811  0.20899620     0.18200
H491        H  0.06553067  0.81893373  0.31850261     0.18200
N492        N  0.07111031  0.77863362  0.24027000    -0.88500
H493        H  0.95811373  0.94658118  0.26862135     0.35600
H494        H  0.95047554  0.92749179  0.32085743     0.40700
H495        H  0.06793731  0.76836951  0.20690263     0.40300
H496        H  0.06221703  0.75125215  0.26007137     0.35200
C497        C  0.07897414  0.00908882  0.86019745    -0.26500
C498        C  0.10419961  0.03807268  0.83343578    -0.14600
C499        C  0.10222486  0.08450941  0.84280523     0.36000
C500        C  0.08039624  0.10003058  0.88189179    -0.26000
C501        C  0.05900471  0.07025122  0.91128633    -0.15200
C502        C  0.05595552  0.02462411  0.89846341     0.37100
N503        N  0.03282119  0.99251146  0.92567507    -0.89400
H504        H  0.07850105  0.97366010  0.85223472     0.18200
H505        H  0.08344905  0.13496690  0.89126973     0.18200
N506        N  0.12240603  0.11647763  0.81353548    -0.88500
H507        H  0.00770345  0.97834239  0.90575746     0.35600
H508        H  0.01612584  0.00822236  0.95234308     0.40700
H509        H  0.10850778  0.11250048  0.78150945     0.40300
H510        H  0.15674986  0.10960150  0.81154258     0.35200
C511        C  0.10909497  0.92651749  0.66210530    -0.26500
C512        C  0.10510125  0.97066293  0.67841209    -0.14600
C513        C  0.07790816  0.00143354  0.65428142     0.36000
C514        C  0.05771499  0.98824786  0.61389374    -0.26000
C515        C  0.06422776  0.94507500  0.59577263    -0.15200
C516        C  0.08916639  0.91354528  0.62121882     0.37100
N517        N  0.09742647  0.86912597  0.60496502    -0.89400
H518        H  0.12933488  0.90236760  0.68044363     0.18200
H519        H  0.03949862  0.01324526  0.59458495     0.18200
N520        N  0.07280574  0.04727118  0.66791885    -0.88500
H521        H  0.11447457  0.87121796  0.57439287     0.35600
H522        H  0.06642819  0.85389743  0.59942261     0.40700
H523        H  0.10459762  0.06119356  0.67218122     0.40300
H524        H  0.05555005  0.04873178  0.69836679     0.35200
C525        C  0.83993572  0.13709545  0.06224171    -0.26500
C526        C  0.82806755  0.12274864  0.01900136    -0.14600
C527        C  0.85127422  0.08578561  0.00012046     0.36000
C528        C  0.88833869  0.06660976  0.02282680    -0.26000
C529        C  0.90281901  0.08376583  0.06428439    -0.15200
C530        C  0.87704242  0.11810589  0.08476425     0.37100
N531        N  0.89076764  0.13618612  0.12713836    -0.89400
H532        H  0.82147175  0.16432649  0.07795050     0.18200
H533        H  0.90848605  0.04129808  0.00588685     0.18200
N534        N  0.83902822  0.06943696  0.95657694    -0.88500
H535        H  0.86404274  0.13300878  0.14962685     0.35600
H536        H  0.89683226  0.17033281  0.12283302     0.40700
H537        H  0.83132131  0.03550580  0.95960863     0.40300
H538        H  0.86695328  0.07209170  0.93551365     0.35200
C539        C  0.86987413  0.29041900  0.97088548    -0.26500
C540        C  0.85180829  0.31657382  0.00585639    -0.14600
C541        C  0.82355148  0.29632573  0.03765283     0.36000
C542        C  0.81189070  0.25107710  0.03238496    -0.26000
C543        C  0.82764774  0.22542202  0.99579275    -0.15200
C544        C  0.85776612  0.24525084  0.96523912     0.37100
N545        N  0.87445291  0.21983858  0.92757458    -0.89400
H546        H  0.89397372  0.30523689  0.94820571     0.18200
H547        H  0.78694148  0.23690289  0.05455209     0.18200
N548        N  0.80581151  0.32224690  0.07451416    -0.88500
H549        H  0.89683457  0.23894917  0.90876556     0.35600
H550        H  0.84739470  0.21290372  0.90634082     0.40700
H551        H  0.83261535  0.33102276  0.09537380     0.40300
H552        H  0.78427130  0.30288475  0.09403253     0.35200
C553        C  0.37344403  0.09973981  0.15549140    -0.26500
C554        C  0.37768714  0.05761239  0.17603478    -0.14600
C555        C  0.40588970  0.02494698  0.15536929     0.36000
C556        C  0.42874426  0.03521515  0.11570401    -0.26000
C557        C  0.42317954  0.07666642  0.09402693    -0.15200
C558        C  0.39515027  0.10918539  0.11453151     0.37100
N559        N  0.38581205  0.15063201  0.09247530    -0.89400
H560        H  0.35182845  0.12505229  0.17050310     0.18200
H561        H  0.44848243  0.00899454  0.09966117     0.18200
N562        N  0.40901708  0.97970605  0.17118646    -0.88500
H563        H  0.39375845  0.17639568  0.11487279     0.35600
H564        H  0.35126221  0.15248502  0.08623462     0.40700
H565        H  0.37670291  0.96703762  0.17541856     0.40300
H566        H  0.42615252  0.97872117  0.20170798     0.35200
C567        C  0.26877879  0.00314520  0.88002481    -0.26500
C568        C  0.30035720  0.03170554  0.86017316    -0.14600
C569        C  0.28549158  0.06342740  0.82852857     0.36000
C570        C  0.24038738  0.06309404  0.81434399    -0.26000
C571        C  0.20985156  0.03099350  0.83043142    -0.15200
C572        C  0.22381173  0.00219595  0.86523070     0.37100
N573        N  0.19274875  0.97079925  0.88398525    -0.89400
H574        H  0.27943200  0.98133736  0.90714238     0.18200
H575        H  0.23033968  0.08443597  0.78663526     0.18200
N576        N  0.31647888  0.09520712  0.81024832    -0.88500
H577        H  0.20803779  0.95251391  0.90980275     0.35600
H578        H  0.18442667  0.94770541  0.85894439     0.40700
H579        H  0.32661639  0.11631742  0.83636748     0.40300
H580        H  0.30045354  0.11560707  0.78653467     0.35200
C581        C  0.36361454  0.27393956  0.01800295    -0.26500
C582        C  0.32360715  0.28817543  0.99792464    -0.14600
C583        C  0.30209354  0.25975255  0.96648974     0.36000
C584        C  0.31729116  0.21535804  0.96113681    -0.26000
C585        C  0.35490665  0.19982828  0.98471619    -0.15200
C586        C  0.38026754  0.23058591  0.01028677     0.37100
N587        N  0.42352115  0.21816713  0.02763556    -0.89400
H588        H  0.38053849  0.29559631  0.04175604     0.18200
H589        H  0.30051678  0.19320498  0.93774339     0.18200
N590        N  0.26422973  0.27591613  0.94101322    -0.88500
H591        H  0.42393697  0.22511219  0.06204057     0.35600
H592        H  0.44729866  0.23890390  0.01270705     0.40700
H593        H  0.23809615  0.28302098  0.96320384     0.40300
H594        H  0.25240858  0.25099735  0.91942004     0.35200
C595        C  0.61101538  0.07184638  0.97418688    -0.26500
C596        C  0.58978977  0.07737611  0.93222431    -0.14600
C597        C  0.61187676  0.10250777  0.89910884     0.36000
C598        C  0.65288961  0.12356249  0.90917957    -0.26000
C599        C  0.67244054  0.12068603  0.95218746    -0.15200
C600        C  0.65160948  0.09335594  0.98451656     0.37100
N601        N  0.67000143  0.08942148  0.02883037    -0.89400
H602        H  0.59413293  0.05343640  0.00046339     0.18200
H603        H  0.66893370  0.14313795  0.88339636     0.18200
N604        N  0.59129830  0.10941142  0.85620865    -0.88500
H605        H  0.67609154  0.05547971  0.03512997     0.35600
H606        H  0.64585613  0.10081650  0.05175659     0.40700
H607        H  0.61367408  0.09805477  0.83154326     0.40300
H608        H  0.58647027  0.14383524  0.85173714     0.35200
C609        C  0.49881234  0.15047526  0.72848444    -0.26500
C610        C  0.47179053  0.18769106  0.71811349    -0.14600
C611        C  0.44147166  0.20411169  0.75103722     0.36000
C612        C  0.44089112  0.18534628  0.79417936    -0.26000
C613        C  0.47001574  0.15015108  0.80538725    -0.15200
C614        C  0.49762303  0.13098346  0.77154533     0.37100
N615        N  0.52528281  0.09252921  0.78142776    -0.89400
H616        H  0.52311471  0.13864034  0.70399236     0.18200
H617        H  0.41759637  0.19840440  0.81905104     0.18200
N618        N  0.41387022  0.24252592  0.74162795    -0.88500
H619        H  0.54479830  0.08365205  0.75354832     0.35600
H620        H  0.50406496  0.06552719  0.78741808     0.40700
H621        H  0.42207803  0.26776574  0.76455420     0.40300
H622        H  0.38038629  0.23377633  0.74701642     0.35200
C623        C  0.36698045  0.94883417  0.34670432    -0.26500
C624        C  0.37752505  0.99184040  0.33099666    -0.14600
C625        C  0.41321981  0.01493687  0.35178834     0.36000
C626        C  0.43567332  0.99608338  0.38885540    -0.26000
C627        C  0.42283657  0.95471845  0.40684218    -0.15200
C628        C  0.38900793  0.93040710  0.38454307     0.37100
N629        N  0.37449403  0.88851620  0.40233607    -0.89400
H630        H  0.34046435  0.93006752  0.33059669     0.18200
H631        H  0.46040817  0.01599542  0.40645724     0.18200
N632        N  0.42481804  0.05906152  0.33737253    -0.88500
H633        H  0.37800190  0.86434277  0.37708055     0.35600
H634        H  0.34034560  0.89141364  0.41013932     0.40700
H635        H  0.45879506  0.05874449  0.32849403     0.40300
H636        H  0.42070040  0.08094467  0.36457398     0.35200
C637        C  0.32715653  0.80133160  0.55713707    -0.26500
C638        C  0.35472963  0.81681072  0.52255338    -0.14600
C639        C  0.37141992  0.78582451  0.49072237     0.36000
C640        C  0.35660591  0.74130095  0.49103884    -0.26000
C641        C  0.32514968  0.72690850  0.52280260    -0.15200
C642        C  0.31222089  0.75691698  0.55773657     0.37100
N643        N  0.28090512  0.74428140  0.59208436    -0.89400
H644        H  0.31720470  0.82389065  0.58399764     0.18200
H645        H  0.36615533  0.71921788  0.46362608     0.18200
N646        N  0.40327313  0.79973108  0.45768592    -0.88500
H647        H  0.25144345  0.76301354  0.58726727     0.35600
H648        H  0.27220047  0.71061915  0.58917385     0.40700
H649        H  0.38968097  0.79332025  0.42594038     0.40300
H650        H  0.43221034  0.77993943  0.46125703     0.35200
C651        C  0.26938318  0.01060635  0.64477197    -0.26500
C652        C  0.29898417  0.97449341  0.65165066    -0.14600
C653        C  0.28273833  0.93517722  0.67189076     0.36000
C654        C  0.23835601  0.93422831  0.68819071    -0.26000
C655        C  0.20974114  0.97185008  0.68477500    -0.15200
C656        C  0.22508878  0.00984404  0.66133478     0.37100
N657        N  0.19638854  0.04856035  0.65674163    -0.89400
H658        H  0.28095092  0.03954246  0.62636140     0.18200
H659        H  0.22732782  0.90561072  0.70742308     0.18200
N660        N  0.31189192  0.89683518  0.67699875    -0.88500
H661        H  0.21220949  0.07320132  0.63774773     0.35600
H662        H  0.19142304  0.06232376  0.68870703     0.40700
H663        H  0.31941218  0.88456415  0.64493632     0.40300
H664        H  0.29530274  0.87110484  0.69374778     0.35200
C665        C  0.40081041  0.12752835  0.60326432    -0.26500
C666        C  0.42648991  0.10404394  0.57123101    -0.14600
C667        C  0.46722378  0.12314167  0.55642697     0.36000
C668        C  0.48376247  0.16170898  0.57728332    -0.26000
C669        C  0.46059257  0.18248647  0.61287000    -0.15200
C670        C  0.41715899  0.16695774  0.62377232     0.37100
N671        N  0.39021287  0.19065669  0.65615072    -0.89400
H672        H  0.36974989  0.11307598  0.61510579     0.18200
H673        H  0.51632509  0.17406426  0.56717062     0.18200
N674        N  0.49370558  0.10258209  0.52168525    -0.88500
H675        H  0.35931484  0.17489489  0.66049197     0.35600
H676        H  0.38323157  0.22241978  0.64308226     0.40700
H677        H  0.47348962  0.09914746  0.49316222     0.40300
H678        H  0.50415750  0.07074042  0.53193518     0.35200
C679        C  0.38685579  0.56608926  0.51636735    -0.26500
C680        C  0.40673857  0.57678107  0.55785339    -0.14600
C681        C  0.38457166  0.60784090  0.58624091     0.36000
C682        C  0.34541046  0.63024660  0.57095179    -0.26000
C683        C  0.32784098  0.62208407  0.52786948    -0.15200
C684        C  0.34807374  0.58847661  0.50114515     0.37100
N685        N  0.33109223  0.57904688  0.45710142    -0.89400
H686        H  0.40380674  0.54290659  0.49382191     0.18200
H687        H  0.32943221  0.65510729  0.59221134     0.18200
N688        N  0.40381897  0.61911066  0.62895807    -0.88500
H689        H  0.32323396  0.54503510  0.45558273     0.35600
H690        H  0.35665060  0.58504582  0.43388119     0.40700
H691        H  0.40246251  0.59046293  0.64898249     0.40300
H692        H  0.38441811  0.64364615  0.64514991     0.35200
C693        C  0.62466574  0.56800631  0.33858688    -0.26500
C694        C  0.61531505  0.52390925  0.32505672    -0.14600
C695        C  0.58268643  0.49981586  0.34901545     0.36000
C696        C  0.56145107  0.51931671  0.38655398    -0.26000
C697        C  0.57309646  0.56219972  0.40221390    -0.15200
C698        C  0.60439185  0.58694307  0.37716436     0.37100
N699        N  0.61855124  0.62982165  0.39291204    -0.89400
H700        H  0.64919032  0.58725045  0.32020778     0.18200
H701        H  0.53894931  0.49896865  0.40634017     0.18200
N702        N  0.57336150  0.45426493  0.33735769    -0.88500
H703        H  0.61250138  0.65311051  0.36741536     0.35600
H704        H  0.65323559  0.62820861  0.39842924     0.40700
H705        H  0.53896175  0.45176520  0.33082517     0.40300
H706        H  0.58087178  0.43420602  0.36515383     0.35200
C707        C  0.52240320  0.39698299  0.55906700    -0.26500
C708        C  0.56601213  0.41366789  0.56599359    -0.14600
C709        C  0.59695537  0.38696020  0.59015311     0.36000
C710        C  0.58241312  0.34665284  0.61021595    -0.26000
C711        C  0.53740902  0.33259918  0.60710177    -0.15200
C712        C  0.50759550  0.35776819  0.57980345     0.37100
N713        N  0.46099503  0.34684403  0.57561799    -0.89400
H714        H  0.49797937  0.41715106  0.54091010     0.18200
H715        H  0.60595116  0.32700914  0.62979305     0.18200
N716        N  0.64190495  0.40244094  0.59720554    -0.88500
H717        H  0.44714758  0.34402662  0.60773655     0.35600
H718        H  0.45796116  0.31637213  0.55874528     0.40700
H719        H  0.65766581  0.40331444  0.56585710     0.40300
H720        H  0.66013355  0.37961606  0.61678278     0.35200
C721        C  0.66593192  0.29815773  0.91517782    -0.26500
C722        C  0.65336930  0.31532057  0.95736783    -0.14600
C723        C  0.65427705  0.28641097  0.99471224     0.36000
C724        C  0.66908486  0.24192751  0.98951002    -0.26000
C725        C  0.68392057  0.22534530  0.94763723    -0.15200
C726        C  0.68120292  0.25397092  0.90979884     0.37100
N727        N  0.69675797  0.24029684  0.86611106    -0.89400
H728        H  0.66314521  0.31932667  0.88573410     0.18200
H729        H  0.67271680  0.22125981  0.01920433     0.18200
N730        N  0.64006313  0.30131456  0.03818847    -0.88500
H731        H  0.66918239  0.24133162  0.84433702     0.35600
H732        H  0.70830006  0.20721831  0.86624705     0.40700
H733        H  0.60651172  0.31169423  0.03590536     0.40300
H734        H  0.65958383  0.32883827  0.04723290     0.35200
C735        C  0.56746447  0.34219682  0.78636707    -0.26500
C736        C  0.52700506  0.36183315  0.80075450    -0.14600
C737        C  0.49276041  0.36976002  0.76912335     0.36000
C738        C  0.49778992  0.35439583  0.72474125    -0.26000
C739        C  0.53620792  0.32995536  0.71155602    -0.15200
C740        C  0.57253203  0.32615499  0.74230972     0.37100
N741        N  0.61322866  0.30239194  0.73113469    -0.89400
H742        H  0.59534016  0.33909042  0.80968008     0.18200
H743        H  0.46934097  0.35688527  0.70206781     0.18200
N744        N  0.45240440  0.39269655  0.78234882    -0.88500
H745        H  0.63957524  0.32522041  0.73309821     0.35600
H746        H  0.61246373  0.29088550  0.69801922     0.40700
H747        H  0.42533240  0.37146790  0.77622750     0.40300
H748        H  0.44855143  0.42090201  0.76194566     0.35200
C749        C  0.59443971  0.39899168  0.11037914    -0.26500
C750        C  0.56623136  0.43089814  0.08997026    -0.14600
C751        C  0.55527992  0.47041893  0.11423244     0.36000
C752        C  0.57665481  0.47945441  0.15510633    -0.26000
C753        C  0.60911613  0.45003474  0.17283729    -0.15200
C754        C  0.61591355  0.40803855  0.15168497     0.37100
N755        N  0.64555208  0.37535537  0.17147386    -0.89400
H756        H  0.60264564  0.36853601  0.09242916     0.18200
H757        H  0.56979770  0.51113457  0.17168860     0.18200
N758        N  0.52339715  0.50263499  0.09758830    -0.88500
H759        H  0.64720748  0.34648487  0.15156123     0.35600
H760        H  0.63163768  0.36591719  0.20220873     0.40700
H761        H  0.49335257  0.48612116  0.09066812     0.40300
H762        H  0.53531969  0.51678984  0.06795746     0.35200
C763        C  0.33574257  0.38042455  0.94326768    -0.26500
C764        C  0.32380061  0.39163102  0.98769607    -0.14600
C765        C  0.34861474  0.42541219  0.00979830     0.36000
C766        C  0.38553080  0.44511931  0.98842410    -0.26000
C767        C  0.39988037  0.43143054  0.94545240    -0.15200
C768        C  0.37387546  0.39932146  0.92227025     0.37100
N769        N  0.38810049  0.38358846  0.87881757    -0.89400
H770        H  0.31682225  0.35491995  0.92583057     0.18200
H771        H  0.40606367  0.46818107  0.00751612     0.18200
N772        N  0.33949871  0.43783869  0.05544311    -0.76500
H773        H  0.36531017  0.36033010  0.86608839     0.35600
H774        H  0.41856959  0.36637639  0.88290684     0.40700
H775        H  0.34121922  0.40911255  0.07538458     0.40300
H776        H  0.30704808  0.45128132  0.05733764     0.35200
C777        C  0.83669994  0.88414856  0.43883777    -0.26500
C778        C  0.82149912  0.89536912  0.48222769    -0.14600
C779        C  0.84239332  0.93110797  0.50495780     0.36000
C780        C  0.87917285  0.95293063  0.48543864    -0.26000
C781        C  0.89704053  0.93917503  0.44383362    -0.15200
C782        C  0.87439897  0.90539112  0.41977716     0.37100
N783        N  0.89173761  0.88998060  0.37762246    -0.89400
H784        H  0.82051731  0.85745820  0.42040846     0.18200
H785        H  0.89681420  0.97781212  0.50513263     0.18200
N786        N  0.82853292  0.94321273  0.54947501    -0.88500
H787        H  0.86636509  0.89357077  0.35355275     0.35600
H788        H  0.89937920  0.85587118  0.38053383     0.40700
H789        H  0.81963214  0.97715608  0.54941671     0.40300
H790        H  0.85603320  0.93901936  0.57099752     0.35200
C791        C  0.65007889  0.92334332  0.52184125    -0.26500
C792        C  0.66802375  0.89304292  0.55327176    -0.14600
C793        C  0.64634018  0.88933470  0.59538589     0.36000
C794        C  0.60588295  0.91312973  0.60380979    -0.26000
C795        C  0.58654984  0.94102275  0.57096280    -0.15200
C796        C  0.61011183  0.94722558  0.53030336     0.37100
N797        N  0.59239957  0.97658021  0.49650756    -0.89400
H798        H  0.66637059  0.92753984  0.48961523     0.18200
H799        H  0.58810756  0.90739897  0.63498526     0.18200
N800        N  0.66512906  0.86148337  0.62975157    -0.88500
H801        H  0.58736711  0.95787630  0.46720523     0.35600
H802        H  0.61655309  0.00080934  0.48968553     0.40700
H803        H  0.64101932  0.83787709  0.63863476     0.40300
H804        H  0.67124935  0.88151631  0.65791907     0.35200
C805        C  0.65910047  0.77686541  0.51078510    -0.26500
C806        C  0.68000958  0.78739953  0.55180456    -0.14600
C807        C  0.68198530  0.75405560  0.58557566     0.36000
C808        C  0.66627895  0.71060396  0.57624835    -0.26000
C809        C  0.64863271  0.69932639  0.53397178    -0.15200
C810        C  0.64356836  0.73355794  0.50166954     0.37100
N811        N  0.62352741  0.72492699  0.45884206    -0.89400
H812        H  0.65852886  0.80141312  0.48402736     0.18200
H813        H  0.66734526  0.68537550  0.60233535     0.18200
N814        N  0.70134972  0.76409088  0.62871763    -0.88500
H815        H  0.59092439  0.71326584  0.46385768     0.35600
H816        H  0.64238248  0.69972356  0.44315923     0.40700
H817        H  0.73556857  0.77014059  0.62438115     0.40300
H818        H  0.69915693  0.73644822  0.65004907     0.35200
C819        C  0.80078667  0.76521743  0.45577067    -0.26500
C820        C  0.82029941  0.79072419  0.49051951    -0.14600
C821        C  0.85591963  0.77162441  0.51550907     0.36000
C822        C  0.86848943  0.72689521  0.50777982    -0.26000
C823        C  0.84572937  0.70009280  0.47640196    -0.15200
C824        C  0.81289633  0.72026552  0.44877204     0.37100
N825        N  0.79091793  0.69560429  0.41388369    -0.89400
H826        H  0.77259902  0.77897441  0.43708356     0.18200
H827        H  0.89690841  0.71315645  0.52600081     0.18200
N828        N  0.87878731  0.79627853  0.55001919    -0.88500
H829        H  0.77565847  0.66777268  0.42837684     0.35600
H830        H  0.81522516  0.68415315  0.39115897     0.40700
H831        H  0.86744729  0.82947279  0.55127100     0.40300
H832        H  0.87098560  0.78160341  0.58084772     0.35200
C833        C  0.48740306  0.85283214  0.91821469    -0.26500
C834        C  0.46003246  0.83392523  0.88481383    -0.14600
C835        C  0.41611977  0.85221261  0.87869147     0.36000
C836        C  0.40352072  0.89194380  0.90135713    -0.26000
C837        C  0.43275990  0.91294011  0.93165936    -0.15200
C838        C  0.47403330  0.89159819  0.94194624     0.37100
N839        N  0.50351713  0.91130779  0.97461110    -0.89400
H840        H  0.52029753  0.83832892  0.92456322     0.18200
H841        H  0.37168830  0.90788155  0.89317991     0.18200
N842        N  0.38304296  0.83107782  0.85088080    -0.88500
H843        H  0.53279380  0.89201519  0.97816469     0.35600
H844        H  0.48708104  0.91055941  0.00562267     0.40700
H845        H  0.39404777  0.79982490  0.83942738     0.40300
H846        H  0.37714414  0.85166778  0.82312388     0.35200
C847        C  0.51335248  0.61750019  0.93785286    -0.26500
C848        C  0.55558550  0.59790448  0.92889580    -0.14600
C849        C  0.58475768  0.62033766  0.89921519     0.36000
C850        C  0.56974845  0.65972196  0.87699438    -0.26000
C851        C  0.52623483  0.67749639  0.88392089    -0.15200
C852        C  0.49834848  0.65632062  0.91593373     0.37100
N853        N  0.45324978  0.67117052  0.92471480    -0.89400
H854        H  0.49017574  0.60045586  0.95990807     0.18200
H855        H  0.59176561  0.67609398  0.85334534     0.18200
N856        N  0.62822947  0.60151968  0.88938363    -0.88500
H857        H  0.43585617  0.67407593  0.89435823     0.35600
H858        H  0.45376052  0.70220877  0.94079175     0.40700
H859        H  0.64712569  0.60272343  0.91898105     0.40300
H860        H  0.64505108  0.62121417  0.86592796     0.35200
C861        C  0.43351902  0.82269004  0.75048004    -0.26500
C862        C  0.46994700  0.83211363  0.77910623    -0.14600
C863        C  0.50516521  0.85884779  0.76226499     0.36000
C864        C  0.50508112  0.87156435  0.71683075    -0.26000
C865        C  0.47038299  0.85884056  0.68759744    -0.15200
C866        C  0.43363876  0.83486639  0.70512231     0.37100
N867        N  0.39585338  0.82218004  0.67780416    -0.89400
H868        H  0.40729050  0.80054811  0.76184046     0.18200
H869        H  0.53164992  0.89289788  0.70459652     0.18200
N870        N  0.54275409  0.87134252  0.78977642    -0.88500
H871        H  0.39431631  0.78722035  0.67783345     0.35600
H872        H  0.40018659  0.83135457  0.64429044     0.40700
H873        H  0.53816046  0.86087624  0.82288299     0.40300
H874        H  0.54343507  0.90632217  0.79094500     0.35200
C875        C  0.55954527  0.68854378  0.75127391    -0.26500
C876        C  0.52094334  0.68230977  0.77770828    -0.14600
C877        C  0.48403680  0.65984614  0.75796442     0.36000
C878        C  0.48534504  0.64778520  0.71226200    -0.26000
C879        C  0.52217064  0.65810435  0.68486019    -0.15200
C880        C  0.56006939  0.67826711  0.70515830     0.37100
N881        N  0.59973211  0.68889201  0.67988092    -0.89400
H882        H  0.58752697  0.70694195  0.76526109     0.18200
H883        H  0.45772139  0.62897329  0.69843192     0.18200
N884        N  0.44356516  0.65136254  0.78267678    -0.88500
H885        H  0.60416855  0.72352851  0.68189576     0.35600
H886        H  0.59552508  0.68179627  0.64579029     0.40700
H887        H  0.44711924  0.66096561  0.81619211     0.40300
H888        H  0.43891834  0.61671455  0.78302994     0.35200
C889        C  0.91980227  0.49677240  0.84027366    -0.26500
C890        C  0.88150700  0.47451373  0.82431877    -0.14600
C891        C  0.87093314  0.43265049  0.84342175     0.36000
C892        C  0.89557545  0.41658390  0.88078283    -0.26000
C893        C  0.93112311  0.44132462  0.89925355    -0.15200
C894        C  0.94499577  0.48048563  0.87664743     0.37100
N895        N  0.98270856  0.50627513  0.89180334    -0.89400
H896        H  0.92945161  0.52832871  0.82541416     0.18200
H897        H  0.88427380  0.38666943  0.89773681     0.18200
N898        N  0.83512519  0.40646174  0.82547864    -0.88500
H899        H  0.00550564  0.50793216  0.86517618     0.35600
H900        H  0.99984533  0.48985921  0.91769669     0.40700
H901        H  0.81212295  0.40069881  0.85130577     0.40300
H902        H  0.84847174  0.37547830  0.81556881     0.35200
C903        C  0.87626772  0.59515932  0.65611946    -0.26500
C904        C  0.88256558  0.55154119  0.67320413    -0.14600
C905        C  0.91258119  0.52261090  0.65029472     0.36000
C906        C  0.93342948  0.53667499  0.61040582    -0.26000
C907        C  0.92388139  0.57868053  0.59093642    -0.15200
C908        C  0.89601325  0.60872608  0.61536581     0.37100
N909        N  0.88471411  0.65208866  0.59832548    -0.89400
H910        H  0.85430775  0.61842489  0.67362353     0.18200
H911        H  0.95409303  0.51270036  0.59216460     0.18200
N912        N  0.91960155  0.47761145  0.66542428    -0.88500
H913        H  0.86818038  0.64806024  0.56765384     0.35600
H914        H  0.91456143  0.66942131  0.59297735     0.40700
H915        H  0.95400975  0.47289809  0.67098501     0.40300
H916        H  0.90982023  0.45584378  0.63971345     0.35200
C917        C  0.71234263  0.51616489  0.86890898    -0.26500
C918        C  0.68184236  0.48673987  0.84826736    -0.14600
C919        C  0.69874783  0.45564417  0.81639412     0.36000
C920        C  0.74428741  0.45704772  0.80389967    -0.26000
C921        C  0.77407952  0.48888027  0.82206116    -0.15200
C922        C  0.75791013  0.51776819  0.85605095     0.37100
N923        N  0.78758949  0.54978277  0.87624201    -0.89400
H924        H  0.70065980  0.53741397  0.89613361     0.18200
H925        H  0.75556898  0.43582689  0.77644421     0.18200
N926        N  0.67063290  0.42265981  0.79548337    -0.88500
H927        H  0.77085911  0.56802928  0.90126856     0.35600
H928        H  0.79665561  0.57285937  0.85161443     0.40700
H929        H  0.63717996  0.42607437  0.80553551     0.40300
H930        H  0.68177707  0.39112157  0.80611945     0.35200
C931        C  0.76768914  0.51830881  0.65566229    -0.26500
C932        C  0.77864059  0.55555618  0.68215028    -0.14600
C933        C  0.74575612  0.58969513  0.68856140     0.36000
C934        C  0.70177186  0.58301869  0.67326851    -0.26000
C935        C  0.68974695  0.54331734  0.65121506    -0.15200
C936        C  0.72363549  0.51193795  0.64040577     0.37100
N937        N  0.71340094  0.47369445  0.61332548    -0.89400
H938        H  0.79227148  0.49172709  0.65070795     0.18200
H939        H  0.67694977  0.60945941  0.67784571     0.18200
N940        N  0.75534314  0.62982423  0.71341775    -0.88500
H941        H  0.72211410  0.44501501  0.63153137     0.35600
H942        H  0.73361457  0.47459716  0.58464470     0.40700
H943        H  0.78917808  0.63082540  0.72267606     0.40300
H944        H  0.73658477  0.62910419  0.74308425     0.35200
loop_ 
_geom_bond_atom_site_label_1 
_geom_bond_atom_site_label_2 
_geom_bond_distance 
_geom_bond_site_symmetry_2 
_ccdc_geom_bond_type 
C1            C2   1.415       .  A
C1            C6   1.387       .  A
C1          C932   1.475       .  S
C2            C3   1.420       .  A
C2          C904   1.509       .  S
C3            C4   1.426       .  A
C3            H8   1.083       .  S
C4            C5   1.425       .  A
C4          C890   1.503       .  S
C5            C6   1.386       .  A
C5          C921   1.486       .  S
C6            H7   1.089       .  S
C9           C10   1.422       .  A
C9           C14   1.385       .  A
C9          C876   1.484       .  S
C10          C11   1.424       .  A
C10         C851   1.504       .  S
C11          C12   1.422       .  A
C11          H16   1.081       .  S
C12          C13   1.420       .  A
C12         C834   1.504       .  S
C13          C14   1.385       .  A
C13         C862   1.480       .  S
C14          H15   1.089       .  S
C17          C18   1.416       .  A
C17          C22   1.389       .  A
C17         C820   1.478       .  S
C18          C19   1.417       .  A
C18         C778   1.501       .  S
C19          C20   1.423       .  A
C19          H24   1.083       .  S
C20          C21   1.423       .  A
C20         C792   1.504       .  S
C21          C22   1.390       .  A
C21         C806   1.487       .  S
C22          H23   1.088       .  S
Fe25         O41   2.171       .  S
Fe25         O31   2.013   1_556  S
Fe25         O38   1.985       .  S
Fe25         O30   2.157       .  S
Fe25         O36   1.922       .  S
Fe26         O29   2.171       .  S
Fe26         O33   2.017       .  S
Fe26         O37   2.185       .  S
Fe26         O42   1.993       .  S
Fe26         O36   1.907       .  S
Fe27         O45   2.009       .  S
Fe27         O32   2.141       .  S
Fe27         O39   2.156   1_556  S
Fe27         O28   1.989       .  S
Fe27         O36   1.904       .  S
O28          C35   1.251       .  A
O29          C43   1.290       .  A
O30          C35   1.286       .  A
O31          C34   1.263       .  A
O32          C44   1.287       .  A
O33          C46   1.255       .  A
C34         C750   1.483       .  S
C34          O39   1.289       .  A
C35         C722   1.473       .  S
O37          C40   1.297       .  A
O38          C40   1.255       .  A
C40         C918   1.478       .  S
O41          C46   1.285       .  A
O42          C44   1.255       .  A
C43         C767   1.491       .  S
C43          O45   1.258       .  A
C44         C736   1.467       .  S
C46         C848   1.496       .  S
Fe47         O63   2.156       .  S
Fe47         O53   2.007       .  S
Fe47         O60   1.982       .  S
Fe47         O52   2.151       .  S
Fe47         O58   1.913       .  S
Fe48         O51   2.167       .  S
Fe48         O55   2.019       .  S
Fe48         O59   2.178       .  S
Fe48         O64   1.994       .  S
Fe48         O58   1.908       .  S
Fe49         O67   2.004       .  S
Fe49         O54   2.161       .  S
Fe49         O61   2.174       .  S
Fe49         O50   1.974       .  S
Fe49         O58   1.905       .  S
O50          C57   1.249       .  A
O51          C65   1.288       .  A
O52          C57   1.286       .  A
O53          C56   1.259       .  A
O54          C66   1.291       .  A
O55          C68   1.257       .  A
C56         C708   1.494       .  S
C56          O61   1.291       .  A
C57         C935   1.461       .  S
O59          C62   1.295       .  A
O60          C62   1.254       .  A
C62         C879   1.476       .  S
O63          C68   1.284       .  A
O64          C66   1.256       .  A
C65         C697   1.485       .  S
C65          O67   1.256       .  A
C66         C809   1.478       .  S
C68         C680   1.486       .  S
Fe69         O85   2.157       .  S
Fe69         O75   2.017       .  S
Fe69         O82   1.986       .  S
Fe69         O74   2.163       .  S
Fe69         O80   1.912       .  S
Fe70         O73   2.162   1_565  S
Fe70         O77   2.012       .  S
Fe70         O81   2.161       .  S
Fe70         O86   1.998       .  S
Fe70         O80   1.900       .  S
Fe71         O89   2.002   1_565  S
Fe71         O76   2.150       .  S
Fe71         O83   2.163       .  S
Fe71         O72   1.981       .  S
Fe71         O80   1.912       .  S
O72          C79   1.254       .  A
O73          C87   1.290       .  A
O74          C79   1.290       .  A
O75          C78   1.257       .  A
O76          C88   1.286       .  A
O77          C90   1.255       .  A
C78         C795   1.490       .  S
C78          O83   1.286       .  A
C79         C865   1.464       .  S
O81          C84   1.292       .  A
O82          C84   1.256       .  A
C84         C638   1.470       .  S
O85          C90   1.284       .  A
O86          C88   1.254       .  A
C87         C666   1.480       .  S
C87          O89   1.260       .  A
C88         C652   1.472       .  S
C90         C627   1.483       .  S
C91          C92   1.417       .  A
C91          C96   1.387       .  A
C91         C739   1.477       .  S
C92          C93   1.420       .  A
C92         C711   1.502       .  S
C93          C94   1.423       .  A
C93          H98   1.082       .  S
C94          C95   1.421       .  A
C94         C669   1.500       .  S
C95          C96   1.386       .  A
C95         C610   1.482       .  S
C96          H97   1.089       .  S
Fe99        O115   2.159   1_545  S
Fe99        O105   2.015   1_556  S
Fe99        O112   1.986       .  S
Fe99        O104   2.161       .  S
Fe99        O110   1.906       .  S
Fe100       O103   2.163       .  S
Fe100       O107   2.017   1_545  S
Fe100       O111   2.165       .  S
Fe100       O116   1.998       .  S
Fe100       O110   1.898       .  S
Fe101       O119   2.016       .  S
Fe101       O106   2.157       .  S
Fe101       O113   2.169   1_556  S
Fe101       O102   1.993       .  S
Fe101       O110   1.904       .  S
O102        C109   1.255       .  A
O103        C117   1.289       .  A
O104        C109   1.290       .  A
O105        C108   1.257       .  A
O106        C118   1.289       .  A
O107        C120   1.256       .  A
C108        C557   1.491       .  S
C108        O113   1.287       .  A
C109        C585   1.465       .  S
O111        C114   1.293       .  A
O112        C114   1.256       .  A
C114        C568   1.471       .  S
O115        C120   1.285       .  A
O116        C118   1.256       .  A
C117        C596   1.488       .  S
C117        O119   1.260       .  A
C118        C613   1.473       .  S
C120        C837   1.485       .  S
C121        C122   1.419       .  A
C121        C126   1.386       .  A
C121        C725   1.481       .  S
C122        C123   1.419       .  A
C122        C599   1.500       .  S
C123        C124   1.416       .  A
C123        H128   1.083       .  S
C124        C125   1.420       .  A
C124        C526   1.493   1_556  S
C125        C126   1.387       .  A
C125        C543   1.480       .  S
C126        H127   1.089       .  S
C129        C130   1.418       .  A
C129        C134   1.420   1_565  A
C129        C512   1.495       .  S
C130        C131   1.385       .  A
C130        C655   1.481       .  S
C131        C132   1.388   1_565  A
C131        H136   1.089       .  S
C132        C133   1.419       .  A
C132        C571   1.480       .  S
C133        C134   1.417       .  A
C133        C498   1.493       .  S
C134        H135   1.083       .  S
C137        C138   1.423       .  A
C137        C142   1.387       .  A
C137        C484   1.483   1_655  S
C138        C139   1.422       .  A
C138        C445   1.502   1_655  S
C139        C140   1.423       .  A
C139        H144   1.083       .  S
C140        C141   1.415       .  A
C140        C456   1.496       .  S
C141        C142   1.384       .  A
C141        C470   1.480       .  S
C142        H143   1.089       .  S
C145        C146   1.417       .  A
C145        C150   1.386       .  A
C145        C641   1.476       .  S
C146        C147   1.418       .  A
C146        C683   1.495       .  S
C147        C148   1.417       .  A
C147        H152   1.084       .  S
C148        C149   1.416       .  A
C148        C414   1.491       .  S
C149        C150   1.385       .  A
C149        C431   1.480       .  S
C150        H151   1.088       .  S
C153        C154   1.416       .  A
C153        C158   1.387       .  A
C153        C403   1.478       .  S
C154        C155   1.420       .  A
C154        C753   1.496       .  S
C155        C156   1.419       .  A
C155        H160   1.083       .  S
C156        C157   1.416       .  A
C156        C694   1.496       .  S
C157        C158   1.384       .  A
C157        C386   1.477       .  S
C158        H159   1.088       .  S
Fe161       O177   2.144   1_655  S
Fe161       O167   2.015       .  S
Fe161       O174   1.993       .  S
Fe161       O166   2.156       .  S
Fe161       O172   1.905       .  S
Fe162       O165   2.187       .  S
Fe162       O169   2.019   1_655  S
Fe162       O173   2.158       .  S
Fe162       O178   2.000       .  S
Fe162       O172   1.897       .  S
Fe163       O181   2.009       .  S
Fe163       O168   2.158       .  S
Fe163       O175   2.162       .  S
Fe163       O164   1.994       .  S
Fe163       O172   1.913       .  S
O164        C171   1.257       .  A
O165        C179   1.294       .  A
O166        C171   1.291       .  A
O167        C170   1.256       .  A
O168        C180   1.286       .  A
O169        C182   1.261       .  A
C170        C372   1.487       .  S
C170        O175   1.285       .  A
C171        C389   1.466       .  S
O173        C176   1.291       .  A
O174        C176   1.256       .  A
C176        C473   1.474       .  S
O177        C182   1.285       .  A
O178        C180   1.250       .  A
C179        C907   1.498       .  S
C179        O181   1.261       .  A
C180        C823   1.471       .  S
C182        C417   1.483       .  S
Fe183       O199   2.155       .  S
Fe183       O189   1.989       .  S
Fe183       O196   2.015       .  S
Fe183       O188   2.177   1_565  S
Fe183       O194   1.902       .  S
Fe184       O187   2.173       .  S
Fe184       O191   1.991       .  S
Fe184       O195   2.161       .  S
Fe184       O200   2.011   1_455  S
Fe184       O194   1.903       .  S
Fe185       O203   1.991       .  S
Fe185       O190   2.169   1_455  S
Fe185       O197   2.174       .  S
Fe185       O186   2.012   1_565  S
Fe185       O194   1.907       .  S
O186        C193   1.257       .  A
O187        C201   1.295       .  A
O188        C193   1.289       .  A
O189        C192   1.252       .  A
O190        C202   1.286       .  A
O191        C204   1.256       .  A
C192        C358   1.474       .  S
C192        O197   1.292       .  A
C193        C347   1.500       .  S
O195        C198   1.288       .  A
O196        C198   1.260       .  A
C198        C515   1.490       .  S
O199        C204   1.290       .  A
O200        C202   1.255       .  A
C201        C487   1.476       .  S
C201        O203   1.256       .  A
C202        C781   1.488       .  S
C204        C428   1.469       .  S
Fe205       O221   2.161   1_554  S
Fe205       O211   2.003   1_655  S
Fe205       O218   1.993       .  S
Fe205       O210   2.166       .  S
Fe205       O216   1.908       .  S
Fe206       O209   2.157       .  S
Fe206       O213   2.016   1_554  S
Fe206       O217   2.169   1_554  S
Fe206       O222   1.983       .  S
Fe206       O216   1.906       .  S
Fe207       O225   2.019       .  S
Fe207       O212   2.149       .  S
Fe207       O219   2.172   1_655  S
Fe207       O208   1.999       .  S
Fe207       O216   1.893       .  S
O208        C215   1.251       .  A
O209        C223   1.285       .  A
O210        C215   1.288       .  A
O211        C214   1.258       .  A
O212        C224   1.291       .  A
O213        C226   1.256       .  A
C214        C319   1.491       .  S
C214        O219   1.291       .  A
C215        C330   1.478       .  S
O217        C220   1.293   1_556  A
O218        C220   1.258       .  A
C220        C540   1.469       .  S
O221        C226   1.284       .  A
O222        C224   1.256       .  A
C223        C459   1.491       .  S
C223        O225   1.258       .  A
C224        C400   1.466       .  S
C226        C893   1.483       .  S
C227        C228   1.417       .  A
C227        C232   1.388       .  A
C227        C361   1.480   1_545  S
C228        C229   1.416       .  A
C228        C624   1.500   1_545  S
C229        C230   1.418       .  A
C229        H234   1.081       .  S
C230        C231   1.423       .  A
C230        C554   1.498       .  S
C231        C232   1.391       .  A
C231        C302   1.488       .  S
C232        H233   1.088       .  S
Fe235       O251   2.114   1_455  S
Fe235       O241   2.055   1_545  S
Fe235       O248   2.017       .  S
Fe235       O240   2.143       .  S
Fe235       O246   1.925       .  S
Fe236       O239   2.113   1_554  S
Fe236       O243   2.051   1_455  S
Fe236       O247   2.139       .  S
Fe236       O252   2.018       .  S
Fe236       O246   1.926       .  S
Fe237       O255   2.049   1_554  S
Fe237       O242   2.150       .  S
Fe237       O249   2.124   1_545  S
Fe237       O238   2.020       .  S
Fe237       O246   1.927       .  S
O238        C245   1.250       .  A
O239        C253   1.285       .  A
O240        C245   1.280       .  A
O241        C244   1.269       .  A
O242        C254   1.284       .  A
O243        C256   1.269       .  A
C244        C442   1.486       .  S
C244        O249   1.288       .  A
C245        C305   1.496       .  S
O247        C250   1.280       .  A
O248        C250   1.252       .  A
C250        C291   1.490       .  S
O251        C256   1.286       .  A
O252        C254   1.252       .  A
C253        C501   1.479       .  S
C253        O255   1.268       .  A
C254        C277   1.493       .  S
C256        C529   1.478       .  S
C257        C258   1.418   1_455  A
C257        C262   1.392       .  A
C257        C333   1.481   1_455  S
C258        C259   1.415   1_655  A
C258        C375   1.499       .  S
C259        C260   1.418       .  A
C259        H264   1.083       .  S
C260        C261   1.425       .  A
C260        C344   1.500       .  S
C261        C262   1.393       .  A
C261        C288   1.490       .  S
C262        H263   1.087       .  S
C265        C266   1.410       .  A
C265        C270   1.395       .  A
C265        C582   1.472   1_554  S
C266        C267   1.413       .  A
C266        C764   1.506   1_554  S
C267        C268   1.426       .  A
C267        H272   1.083       .  S
C268        C269   1.429       .  A
C268        C316   1.501       .  S
C269        C270   1.393       .  A
C269        C274   1.497       .  S
C270        H271   1.088       .  S
C273        C274   1.400       .  A
C273        C278   1.399       .  A
C273        H280   1.084   1_554  S
C274        C275   1.424       .  A
C275        C276   1.419       .  A
C275        N282   1.438       .  S
C276        C277   1.405       .  A
C276        H281   1.083       .  S
C277        C278   1.423       .  A
C278        N279   1.435   1_554  S
N279        H283   1.043       .  S
N279        H284   1.046       .  S
N282        H285   1.044       .  S
N282        H286   1.046       .  S
C287        C288   1.398       .  A
C287        C292   1.402       .  A
C287        H294   1.083   1_455  S
C288        C289   1.424       .  A
C289        C290   1.411       .  A
C289        N296   1.437       .  S
C290        C291   1.402       .  A
C290        H295   1.083       .  S
C291        C292   1.420       .  A
C292        N293   1.438   1_455  S
N293        H297   1.045       .  S
N293        H298   1.046       .  S
N296        H299   1.045       .  S
N296        H300   1.045       .  S
C301        C302   1.413       .  A
C301        C306   1.415       .  A
C301        H308   1.084       .  S
C302        C303   1.403       .  A
C303        C304   1.401       .  A
C303        N310   1.432   1_545  S
C304        C305   1.413       .  A
C304        H309   1.084   1_545  S
C305        C306   1.410       .  A
C306        N307   1.433       .  S
N307        H311   1.045       .  S
N307        H312   1.045       .  S
N310        H313   1.045       .  S
N310        H314   1.046       .  S
C315        C316   1.404       .  A
C315        C320   1.405       .  A
C315        H322   1.084   1_554  S
C316        C317   1.419       .  A
C317        C318   1.409       .  A
C317        N324   1.430       .  S
C318        C319   1.404       .  A
C318        H323   1.081       .  S
C319        C320   1.418       .  A
C320        N321   1.439   1_554  S
N321        H325   1.046       .  S
N321        H326   1.045       .  S
N324        H327   1.045       .  S
N324        H328   1.041       .  S
C329        C330   1.396       .  A
C329        C334   1.408       .  A
C329        H336   1.084       .  S
C330        C331   1.423       .  A
C331        C332   1.401   1_655  A
C331        N338   1.432   1_655  S
C332        C333   1.396   1_455  A
C332        H337   1.084       .  S
C333        C334   1.423       .  A
C334        N335   1.439       .  S
N335        H339   1.045       .  S
N335        H340   1.044       .  S
N338        H341   1.045   1_455  S
N338        H342   1.043       .  S
C343        C344   1.408       .  A
C343        C348   1.415       .  A
C343        H350   1.084       .  S
C344        C345   1.418       .  A
C345        C346   1.400       .  A
C345        N352   1.434   1_455  S
C346        C347   1.411       .  A
C346        H351   1.084   1_455  S
C347        C348   1.411       .  A
C348        N349   1.427       .  S
N349        H353   1.046       .  S
N349        H354   1.046       .  S
N352        H355   1.045       .  S
N352        H356   1.042       .  S
C357        C358   1.398       .  A
C357        C362   1.404       .  A
C357        H364   1.084       .  S
C358        C359   1.417   1_565  A
C359        C360   1.405       .  A
C359        N366   1.432       .  S
C360        C361   1.397   1_545  A
C360        H365   1.084       .  S
C361        C362   1.424       .  A
C362        N363   1.438       .  S
N363        H367   1.045       .  S
N363        H368   1.045       .  S
N366        H369   1.045       .  S
N366        H370   1.046       .  S
C371        C372   1.405       .  A
C371        C376   1.411       .  A
C371        H378   1.084       .  S
C372        C373   1.412       .  A
C373        C374   1.404       .  A
C373        N380   1.433   1_655  S
C374        C375   1.404       .  A
C374        H379   1.084   1_655  S
C375        C376   1.420       .  A
C376        N377   1.429       .  S
N377        H381   1.040       .  S
N377        H382   1.045       .  S
N380        H383   1.046       .  S
N380        H384   1.046       .  S
C385        C386   1.409       .  A
C385        C390   1.407       .  A
C385        H392   1.084       .  S
C386        C387   1.410       .  A
C387        C388   1.407       .  A
C387        N394   1.438       .  S
C388        C389   1.403       .  A
C388        H393   1.084       .  S
C389        C390   1.408       .  A
C390        N391   1.438       .  S
N391        H395   1.046       .  S
N391        H396   1.046       .  S
N394        H397   1.045       .  S
N394        H398   1.046       .  S
C399        C400   1.398       .  A
C399        C404   1.400       .  A
C399        H406   1.084       .  S
C400        C401   1.418       .  A
C401        C402   1.400       .  A
C401        N408   1.432       .  S
C402        C403   1.401       .  A
C402        H407   1.084       .  S
C403        C404   1.413       .  A
C404        N405   1.432       .  S
N405        H409   1.046       .  S
N405        H410   1.046       .  S
N408        H411   1.045       .  S
N408        H412   1.043       .  S
C413        C414   1.405       .  A
C413        C418   1.404       .  A
C413        H420   1.084       .  S
C414        C415   1.409       .  A
C415        C416   1.405       .  A
C415        N422   1.432       .  S
C416        C417   1.406       .  A
C416        H421   1.084       .  S
C417        C418   1.414       .  A
C418        N419   1.429       .  S
N419        H423   1.045       .  S
N419        H424   1.045       .  S
N422        H425   1.045       .  S
N422        H426   1.046       .  S
C427        C428   1.400       .  A
C427        C432   1.402       .  A
C427        H434   1.084       .  S
C428        C429   1.411       .  A
C429        C430   1.404       .  A
C429        N436   1.431       .  S
C430        C431   1.401       .  A
C430        H435   1.084       .  S
C431        C432   1.421       .  A
C432        N433   1.437       .  S
N433        H437   1.046       .  S
N433        H438   1.045       .  S
N436        H439   1.046       .  S
N436        H440   1.046       .  S
C441        C442   1.406       .  A
C441        C446   1.414       .  A
C441        H448   1.084       .  S
C442        C443   1.416       .  A
C443        C444   1.409   1_455  A
C443        N450   1.433   1_455  S
C444        C445   1.407   1_655  A
C444        H449   1.084       .  S
C445        C446   1.412       .  A
C446        N447   1.435       .  S
N447        H451   1.045       .  S
N447        H452   1.046       .  S
N450        H453   1.046       .  S
N450        H454   1.045       .  S
C455        C456   1.407       .  A
C455        C460   1.416       .  A
C455        H462   1.084       .  S
C456        C457   1.414       .  A
C457        C458   1.402       .  A
C457        N464   1.433   1_655  S
C458        C459   1.408       .  A
C458        H463   1.084       .  S
C459        C460   1.414       .  A
C460        N461   1.436       .  S
N461        H465   1.046       .  S
N461        H466   1.045       .  S
N464        H467   1.046       .  S
N464        H468   1.044       .  S
C469        C470   1.404       .  A
C469        C474   1.408       .  A
C469        H476   1.084   1_655  S
C470        C471   1.414       .  A
C471        C472   1.408       .  A
C471        N478   1.438       .  S
C472        C473   1.403       .  A
C472        H477   1.084       .  S
C473        C474   1.412       .  A
C474        N475   1.436   1_655  S
N475        H479   1.046       .  S
N475        H480   1.045       .  S
N478        H481   1.045       .  S
N478        H482   1.046       .  S
C483        C484   1.400   1_655  A
C483        C488   1.405       .  A
C483        H490   1.084       .  S
C484        C485   1.426       .  A
C485        C486   1.403       .  A
C485        N492   1.439       .  S
C486        C487   1.399       .  A
C486        H491   1.084       .  S
C487        C488   1.423   1_455  A
C488        N489   1.438       .  S
N489        H493   1.045       .  S
N489        H494   1.041       .  S
N492        H495   1.043       .  S
N492        H496   1.046       .  S
C497        C498   1.402       .  A
C497        C502   1.405       .  A
C497        H504   1.084   1_545  S
C498        C499   1.415       .  A
C499        C500   1.408       .  A
C499        N506   1.431       .  S
C500        C501   1.407       .  A
C500        H505   1.084       .  S
C501        C502   1.418       .  A
C502        N503   1.438   1_545  S
N503        H507   1.046       .  S
N503        H508   1.045   1_565  S
N506        H509   1.046       .  S
N506        H510   1.043       .  S
C511        C512   1.408       .  A
C511        C516   1.408       .  A
C511        H518   1.084       .  S
C512        C513   1.416   1_565  A
C513        C514   1.401   1_545  A
C513        N520   1.434       .  S
C514        C515   1.408       .  A
C514        H519   1.084   1_565  S
C515        C516   1.415       .  A
C516        N517   1.430       .  S
N517        H521   1.045       .  S
N517        H522   1.045       .  S
N520        H523   1.045       .  S
N520        H524   1.043       .  S
C525        C526   1.401       .  A
C525        C530   1.407       .  A
C525        H532   1.083       .  S
C526        C527   1.412       .  A
C527        C528   1.411       .  A
C527        N534   1.432   1_554  S
C528        C529   1.404       .  A
C528        H533   1.084       .  S
C529        C530   1.412       .  A
C530        N531   1.431       .  S
N531        H535   1.045       .  S
N531        H536   1.046       .  S
N534        H537   1.045       .  S
N534        H538   1.046       .  S
C539        C540   1.404   1_556  A
C539        C544   1.409       .  A
C539        H546   1.084       .  S
C540        C541   1.409       .  A
C541        C542   1.407       .  A
C541        N548   1.439       .  S
C542        C543   1.408   1_554  A
C542        H547   1.084       .  S
C543        C544   1.413       .  A
C544        N545   1.438       .  S
N545        H549   1.046       .  S
N545        H550   1.045       .  S
N548        H551   1.045       .  S
N548        H552   1.046       .  S
C553        C554   1.405       .  A
C553        C558   1.411       .  A
C553        H560   1.084       .  S
C554        C555   1.420       .  A
C555        C556   1.400       .  A
C555        N562   1.434   1_545  S
C556        C557   1.406       .  A
C556        H561   1.085       .  S
C557        C558   1.412       .  A
C558        N559   1.428       .  S
N559        H563   1.045       .  S
N559        H564   1.046       .  S
N562        H565   1.045       .  S
N562        H566   1.042       .  S
C567        C568   1.407       .  A
C567        C572   1.409       .  A
C567        H574   1.084   1_545  S
C568        C569   1.406       .  A
C569        C570   1.407       .  A
C569        N576   1.438       .  S
C570        C571   1.413       .  A
C570        H575   1.084       .  S
C571        C572   1.408       .  A
C572        N573   1.438   1_545  S
N573        H577   1.045       .  S
N573        H578   1.045       .  S
N576        H579   1.046       .  S
N576        H580   1.046       .  S
C581        C582   1.395   1_554  A
C581        C586   1.401       .  A
C581        H588   1.084       .  S
C582        C583   1.418       .  A
C583        C584   1.406       .  A
C583        N590   1.438       .  S
C584        C585   1.397       .  A
C584        H589   1.084       .  S
C585        C586   1.415   1_556  A
C586        N587   1.433       .  S
N587        H591   1.044       .  S
N587        H592   1.045       .  S
N590        H593   1.041       .  S
N590        H594   1.045       .  S
C595        C596   1.409       .  A
C595        C600   1.407       .  A
C595        H602   1.084   1_556  S
C596        C597   1.408       .  A
C597        C598   1.410       .  A
C597        N604   1.430       .  S
C598        C599   1.408       .  A
C598        H603   1.081       .  S
C599        C600   1.412       .  A
C600        N601   1.432   1_556  S
N601        H605   1.046       .  S
N601        H606   1.046       .  S
N604        H607   1.045       .  S
N604        H608   1.046       .  S
C609        C610   1.401       .  A
C609        C614   1.410       .  A
C609        H616   1.084       .  S
C610        C611   1.416       .  A
C611        C612   1.403       .  A
C611        N618   1.433       .  S
C612        C613   1.397       .  A
C612        H617   1.084       .  S
C613        C614   1.417       .  A
C614        N615   1.438       .  S
N615        H619   1.046       .  S
N615        H620   1.045       .  S
N618        H621   1.046       .  S
N618        H622   1.045       .  S
C623        C624   1.407       .  A
C623        C628   1.413       .  A
C623        H630   1.083       .  S
C624        C625   1.413   1_565  A
C625        C626   1.406   1_545  A
C625        N632   1.433       .  S
C626        C627   1.405       .  A
C626        H631   1.084   1_565  S
C627        C628   1.411       .  A
C628        N629   1.431       .  S
N629        H633   1.045       .  S
N629        H634   1.046       .  S
N632        H635   1.046       .  S
N632        H636   1.046       .  S
C637        C638   1.400       .  A
C637        C642   1.403       .  A
C637        H644   1.084       .  S
C638        C639   1.410       .  A
C639        C640   1.405       .  A
C639        N646   1.432       .  S
C640        C641   1.403       .  A
C640        H645   1.084       .  S
C641        C642   1.422       .  A
C642        N643   1.438       .  S
N643        H647   1.046       .  S
N643        H648   1.044       .  S
N646        H649   1.045       .  S
N646        H650   1.046       .  S
C651        C652   1.402   1_545  A
C651        C656   1.409       .  A
C651        H658   1.084       .  S
C652        C653   1.411       .  A
C653        C654   1.408       .  A
C653        N660   1.439       .  S
C654        C655   1.407       .  A
C654        H659   1.084       .  S
C655        C656   1.414   1_565  A
C656        N657   1.438       .  S
N657        H661   1.045       .  S
N657        H662   1.045       .  S
N660        H663   1.045       .  S
N660        H664   1.046       .  S
C665        C666   1.405       .  A
C665        C670   1.415       .  A
C665        H672   1.084       .  S
C666        C667   1.416       .  A
C667        C668   1.400       .  A
C667        N674   1.434       .  S
C668        C669   1.404       .  A
C668        H673   1.084       .  S
C669        C670   1.416       .  A
C670        N671   1.435       .  S
N671        H675   1.046       .  S
N671        H676   1.045       .  S
N674        H677   1.045       .  S
N674        H678   1.044       .  S
C679        C680   1.406       .  A
C679        C684   1.404       .  A
C679        H686   1.084       .  S
C680        C681   1.412       .  A
C681        C682   1.414       .  A
C681        N688   1.435       .  S
C682        C683   1.406       .  A
C682        H687   1.081       .  S
C683        C684   1.410       .  A
C684        N685   1.433       .  S
N685        H689   1.046       .  S
N685        H690   1.046       .  S
N688        H691   1.045       .  S
N688        H692   1.046       .  S
C693        C694   1.406       .  A
C693        C698   1.412       .  A
C693        H700   1.083       .  S
C694        C695   1.410       .  A
C695        C696   1.406       .  A
C695        N702   1.433       .  S
C696        C697   1.408       .  A
C696        H701   1.084       .  S
C697        C698   1.410       .  A
C698        N699   1.430       .  S
N699        H703   1.045       .  S
N699        H704   1.046       .  S
N702        H705   1.045       .  S
N702        H706   1.046       .  S
C707        C708   1.410       .  A
C707        C712   1.401       .  A
C707        H714   1.085       .  S
C708        C709   1.411       .  A
C709        C710   1.417       .  A
C709        N716   1.435       .  S
C710        C711   1.411       .  A
C710        H715   1.081       .  S
C711        C712   1.415       .  A
C712        N713   1.433       .  S
N713        H717   1.046       .  S
N713        H718   1.043       .  S
N716        H719   1.045       .  S
N716        H720   1.046       .  S
C721        C722   1.405       .  A
C721        C726   1.401       .  A
C721        H728   1.085       .  S
C722        C723   1.410       .  A
C723        C724   1.404       .  A
C723        N730   1.430   1_556  S
C724        C725   1.410       .  A
C724        H729   1.084   1_556  S
C725        C726   1.418       .  A
C726        N727   1.438       .  S
N727        H731   1.046       .  S
N727        H732   1.043       .  S
N730        H733   1.045       .  S
N730        H734   1.046       .  S
C735        C736   1.401       .  A
C735        C740   1.403       .  A
C735        H742   1.085       .  S
C736        C737   1.406       .  A
C737        C738   1.405       .  A
C737        N744   1.432       .  S
C738        C739   1.406       .  A
C738        H743   1.084       .  S
C739        C740   1.420       .  A
C740        N741   1.437       .  S
N741        H745   1.046       .  S
N741        H746   1.043       .  S
N744        H747   1.046       .  S
N744        H748   1.045       .  S
C749        C750   1.403       .  A
C749        C754   1.412       .  A
C749        H756   1.080       .  S
C750        C751   1.417       .  A
C751        C752   1.399       .  A
C751        N758   1.434       .  S
C752        C753   1.403       .  A
C752        H757   1.084       .  S
C753        C754   1.415       .  A
C754        N755   1.437       .  S
N755        H759   1.046       .  S
N755        H760   1.045       .  S
N758        H761   1.045       .  S
N758        H762   1.043       .  S
C763        C764   1.408       .  A
C763        C768   1.419       .  A
C763        H770   1.083       .  S
C764        C765   1.416   1_556  A
C765        C766   1.405   1_554  A
C765        N772   1.433       .  S
C766        C767   1.407       .  A
C766        H771   1.084   1_556  S
C767        C768   1.416       .  A
C768        N769   1.438       .  S
N769        H773   1.046       .  S
N769        H774   1.045       .  S
N772        H775   1.046       .  S
N772        H776   1.044       .  S
C777        C778   1.408       .  A
C777        C782   1.415       .  A
C777        H784   1.083       .  S
C778        C779   1.411       .  A
C779        C780   1.407       .  A
C779        N786   1.433       .  S
C780        C781   1.407       .  A
C780        H785   1.084       .  S
C781        C782   1.412       .  A
C782        N783   1.430       .  S
N783        H787   1.045       .  S
N783        H788   1.046       .  S
N786        H789   1.045       .  S
N786        H790   1.046       .  S
C791        C792   1.405       .  A
C791        C796   1.404       .  A
C791        H798   1.084       .  S
C792        C793   1.416       .  A
C793        C794   1.415       .  A
C793        N800   1.430       .  S
C794        C795   1.406       .  A
C794        H799   1.084       .  S
C795        C796   1.413       .  A
C796        N797   1.433       .  S
N797        H801   1.046       .  S
N797        H802   1.046   1_565  S
N800        H803   1.046       .  S
N800        H804   1.045       .  S
C805        C806   1.406       .  A
C805        C810   1.403       .  A
C805        H812   1.084       .  S
C806        C807   1.418       .  A
C807        C808   1.410       .  A
C807        N814   1.439       .  S
C808        C809   1.404       .  A
C808        H813   1.084       .  S
C809        C810   1.413       .  A
C810        N811   1.431       .  S
N811        H815   1.045       .  S
N811        H816   1.044       .  S
N814        H817   1.044       .  S
N814        H818   1.046       .  S
C819        C820   1.411       .  A
C819        C824   1.402       .  A
C819        H826   1.084       .  S
C820        C821   1.411       .  A
C821        C822   1.402       .  A
C821        N828   1.437       .  S
C822        C823   1.406       .  A
C822        H827   1.083       .  S
C823        C824   1.409       .  A
C824        N825   1.433       .  S
N825        H829   1.046       .  S
N825        H830   1.045       .  S
N828        H831   1.045       .  S
N828        H832   1.046       .  S
C833        C834   1.405       .  A
C833        C838   1.409       .  A
C833        H840   1.084       .  S
C834        C835   1.424       .  A
C835        C836   1.411       .  A
C835        N842   1.435       .  S
C836        C837   1.403       .  A
C836        H841   1.084       .  S
C837        C838   1.412       .  A
C838        N839   1.438       .  S
N839        H843   1.046       .  S
N839        H844   1.046   1_556  S
N842        H845   1.043       .  S
N842        H846   1.045       .  S
C847        C848   1.407       .  A
C847        C852   1.401       .  A
C847        H854   1.084       .  S
C848        C849   1.414       .  A
C849        C850   1.419       .  A
C849        N856   1.436       .  S
C850        C851   1.410       .  A
C850        H855   1.083       .  S
C851        C852   1.419       .  A
C852        N853   1.434       .  S
N853        H857   1.044       .  S
N853        H858   1.042       .  S
N856        H859   1.045       .  S
N856        H860   1.046       .  S
C861        C862   1.408       .  A
C861        C866   1.399       .  A
C861        H868   1.083       .  S
C862        C863   1.417       .  A
C863        C864   1.406       .  A
C863        N870   1.437       .  S
C864        C865   1.404       .  A
C864        H869   1.084       .  S
C865        C866   1.414       .  A
C866        N867   1.440       .  S
N867        H871   1.046       .  S
N867        H872   1.044       .  S
N870        H873   1.044       .  S
N870        H874   1.046       .  S
C875        C876   1.408       .  A
C875        C880   1.406       .  A
C875        H882   1.084       .  S
C876        C877   1.419       .  A
C877        C878   1.407       .  A
C877        N884   1.437       .  S
C878        C879   1.404       .  A
C878        H883   1.081       .  S
C879        C880   1.418       .  A
C880        N881   1.439       .  S
N881        H885   1.046       .  S
N881        H886   1.044       .  S
N884        H887   1.043       .  S
N884        H888   1.046       .  S
C889        C890   1.407       .  A
C889        C894   1.402       .  A
C889        H896   1.084       .  S
C890        C891   1.414       .  A
C891        C892   1.414       .  A
C891        N898   1.430       .  S
C892        C893   1.407       .  A
C892        H897   1.084       .  S
C893        C894   1.416       .  A
C894        N895   1.439       .  S
N895        H899   1.046   1_655  S
N895        H900   1.045       .  S
N898        H901   1.046       .  S
N898        H902   1.045       .  S
C903        C904   1.411       .  A
C903        C908   1.411       .  A
C903        H910   1.082       .  S
C904        C905   1.412       .  A
C905        C906   1.408       .  A
C905        N912   1.432       .  S
C906        C907   1.410       .  A
C906        H911   1.084       .  S
C907        C908   1.416       .  A
C908        N909   1.429       .  S
N909        H913   1.044       .  S
N909        H914   1.045       .  S
N912        H915   1.046       .  S
N912        H916   1.046       .  S
C917        C918   1.409       .  A
C917        C922   1.411       .  A
C917        H924   1.083       .  S
C918        C919   1.415       .  A
C919        C920   1.407       .  A
C919        N926   1.439       .  S
C920        C921   1.412       .  A
C920        H925   1.084       .  S
C921        C922   1.410       .  A
C922        N923   1.438       .  S
N923        H927   1.046       .  S
N923        H928   1.045       .  S
N926        H929   1.044       .  S
N926        H930   1.046       .  S
C931        C932   1.402       .  A
C931        C936   1.402       .  A
C931        H938   1.084       .  S
C932        C933   1.419       .  A
C933        C934   1.402       .  A
C933        N940   1.437       .  S
C934        C935   1.403       .  A
C934        H939   1.085       .  S
C935        C936   1.407       .  A
C936        N937   1.431       .  S
N937        H941   1.045       .  S
N937        H942   1.046       .  S
N940        H943   1.045       .  S
N940        H944   1.046       .  S
