geometry optimzed in LAMMPS
_audit_creation_date              2020-11-30 
_audit_creation_method            'lammps2cif' 
_symmetry_space_group_name_H-M    'P1' 
_symmetry_Int_Tables_number       1 
_symmetry_cell_setting            triclinic 
loop_ 
_symmetry_equiv_pos_as_xyz 
  x,y,z 
_cell_length_a                    81.73283771 
_cell_length_b                    81.77361660169832 
_cell_length_c                    33.96099104961354 
_cell_angle_alpha                 89.51876895202732 
_cell_angle_beta                  90.42492245491525 
_cell_angle_gamma                 122.7063183533909 
loop_ 
_atom_site_label 
_atom_site_type_symbol 
_atom_site_fract_x 
_atom_site_fract_y 
_atom_site_fract_z 
_atom_site_charge 
C1          C  0.17807502  0.51344772  0.70575843    -0.02300
C2          C  0.30098234  0.50870759  0.73495808    -0.02300
C3          C  0.17589853  0.63819453  0.75140448    -0.02300
C4          C  0.30737037  0.77279249  0.73844607    -0.02300
C5          C  0.43539280  0.63782496  0.72543038    -0.02300
C6          C  0.42499758  0.75769468  0.75485322    -0.02300
C7          C  0.50647801  0.18292319  0.23078762    -0.02300
C8          C  0.63113991  0.17759764  0.24708507    -0.02300
C9          C  0.76108399  0.31219603  0.23785961    -0.02300
C10         C  0.75690365  0.43607675  0.24149575    -0.02300
C11         C  0.63126103  0.43546677  0.22767059    -0.02300
C12         C  0.49850909  0.30513585  0.23176751    -0.02300
O13         O  0.39605424  0.10101265  0.89528773    -0.57600
C14         C  0.41039211  0.11320527  0.00998681     0.75000
O15         O  0.35621783  0.10492204  0.98315301    -0.58800
C16         C  0.38114051  0.09283894  0.87325972     0.75000
C17         C  0.35735945  0.05369628  0.97257401     0.77400
Cd18       Cd  0.37782142  0.09479783  0.95673776     1.37500
O19         O  0.41260255  0.11015289  0.97453803    -0.57600
O20         O  0.37501409  0.06372827  0.96256434    -0.56400
C21         C  0.36318636  0.11988585  0.96133617     0.77300
O22         O  0.34906044  0.06286955  0.97761555    -0.58800
O23         O  0.39334680  0.10776244  0.02036669    -0.57300
O24         O  0.36490170  0.08623156  0.88987431    -0.57300
O25         O  0.37666581  0.12302886  0.93820641    -0.56400
O26         O  0.29280741  0.86155615  0.05372304    -0.57600
C27         C  0.28852510  0.85009259  0.94630382     0.75000
O28         O  0.24240512  0.85039084  0.97188858    -0.58800
C29         C  0.28997145  0.87043901  0.08047107     0.75000
C30         C  0.29182055  0.90823822  0.98425646     0.77400
Cd31       Cd  0.27568818  0.86767117  0.00130339     1.37500
O32         O  0.28857815  0.84767728  0.98308246    -0.57600
O33         O  0.30219113  0.90107930  0.98636903    -0.56400
C34         C  0.23399431  0.83997900  0.00189044     0.77300
O35         O  0.27370519  0.89644295  0.98856778    -0.58800
O36         O  0.28333167  0.86140117  0.93484642    -0.57300
O37         O  0.28068207  0.87817078  0.07047213    -0.57300
O38         O  0.24470476  0.84301780  0.03146575    -0.56400
O39         O  0.83341313  0.29355328  0.98790348    -0.57600
C40         C  0.84943492  0.28299794  0.88600314     0.75000
O41         O  0.87619513  0.27347424  0.98202894    -0.58800
C42         C  0.83158321  0.28879908  0.02392869     0.75000
C43         C  0.81769141  0.23287067  0.96980989     0.77400
Cd44       Cd  0.84672984  0.27406903  0.96824159     1.37500
O45         O  0.84213296  0.28933498  0.90943672    -0.57600
O46         O  0.81726388  0.24450995  0.94576203    -0.56400
C47         C  0.88781587  0.29175508  0.98203937     0.77300
O48         O  0.83181388  0.24024830  0.99386945    -0.58800
O49         O  0.85508970  0.27265679  0.90102933    -0.57300
O50         O  0.83701121  0.27750359  0.03381651    -0.57300
O51         O  0.88016218  0.30161671  0.97840171    -0.56400
O52         O  0.08203796  0.40470980  0.02885798    -0.57600
C53         C  0.09192113  0.41068989  0.91113076     0.75000
O54         O  0.08665800  0.35996580  0.95984693    -0.58800
C55         C  0.07936893  0.39247201  0.05530538     0.75000
C56         C  0.03380503  0.36016486  0.96922122     0.77400
Cd57       Cd  0.07575834  0.38261874  0.97412689     1.37500
O58         O  0.09140664  0.41552572  0.94618270    -0.57600
O59         O  0.04378998  0.37784603  0.97893766    -0.56400
C60         C  0.10306140  0.37079766  0.97645976     0.77300
O61         O  0.04324564  0.35253059  0.96002443    -0.58800
O62         O  0.08412676  0.39271319  0.90512777    -0.57300
O63         O  0.07506575  0.37589489  0.04387460    -0.57300
O64         O  0.10645128  0.38657304  0.99063690    -0.56400
O65         O  0.62530678  0.09040497  0.99519831    -0.57600
C66         C  0.64195532  0.07812812  0.88934414     0.75000
O67         O  0.68112592  0.09301595  0.99662013    -0.58800
C68         C  0.63515077  0.09860197  0.02598597     0.75000
C69         C  0.63018971  0.03869537  0.99626526     0.77400
Cd70       Cd  0.64697169  0.07918532  0.97380919     1.37500
O71         O  0.63302409  0.08310145  0.91162377    -0.57600
O72         O  0.61979523  0.04567511  0.99065444    -0.56400
C73         C  0.68786239  0.10881867  0.97767605     0.77300
O74         O  0.64833324  0.05063273  0.99312200    -0.58800
O75         O  0.65234227  0.07304465  0.90637259    -0.57300
O76         O  0.64888815  0.09623713  0.03373895    -0.57300
O77         O  0.67580510  0.11033608  0.95700822    -0.56400
O78         O  0.52664398  0.84516532  0.08965731    -0.57600
C79         C  0.51971342  0.83088650  0.97751856     0.75000
O80         O  0.57836991  0.88516558  0.01905792    -0.58800
C81         C  0.53943699  0.85177606  0.11655443     0.75000
C82         C  0.56664279  0.82888499  0.03863320     0.77400
Cd83       Cd  0.54959765  0.85205024  0.03590653     1.37500
O84         O  0.51562936  0.83146381  0.01309790    -0.57600
O85         O  0.55239725  0.82528597  0.05978927    -0.56400
C86         C  0.56927370  0.89362194  0.02285199     0.77300
O87         O  0.57380250  0.84384161  0.01678204    -0.58800
O88         O  0.53756387  0.84066238  0.96871207    -0.57300
O89         O  0.55675023  0.85838161  0.10577660    -0.57300
O90         O  0.55128425  0.88277191  0.02962249    -0.56400
O91         O  0.10500251  0.64929538  0.01245992    -0.57600
C92         C  0.08588209  0.65854178  0.10908675     0.75000
O93         O  0.09921010  0.69915916  0.00161073    -0.58800
C94         C  0.10819041  0.65437537  0.97669733     0.75000
C95         C  0.04722961  0.64988829  0.01061967     0.77400
Cd96       Cd  0.08798166  0.66610694  0.02621255     1.37500
O97         O  0.08111231  0.64521303  0.08431634    -0.57600
O98         O  0.05402820  0.63938702  0.01650037    -0.56400
C99         C  0.11546396  0.70719885  0.01929344     0.77300
O100        O  0.05944885  0.66803635  0.00930875    -0.58800
O101        O  0.09199453  0.67531358  0.09540207    -0.57300
O102        O  0.10046313  0.66312034  0.96322042    -0.57300
O103        O  0.11844472  0.69622929  0.04045418    -0.56400
O104        O  0.84076160  0.53393882  0.99750933    -0.57600
C105        C  0.85444164  0.56017243  0.89602786     0.75000
O106        O  0.85249874  0.59406712  0.97933192    -0.58800
C107        C  0.84201995  0.53686375  0.03429014     0.75000
C108        C  0.90188781  0.58752009  0.99332316     0.77400
Cd109      Cd  0.86041152  0.56836174  0.97893065     1.37500
O110        O  0.85244839  0.54752684  0.92069334    -0.57600
O111        O  0.89198814  0.57214614  0.97358747    -0.56400
C112        C  0.83514321  0.58244027  0.99077252     0.77300
O113        O  0.89263573  0.59474673  0.00637305    -0.58800
O114        O  0.85957237  0.57662009  0.90973858    -0.57300
O115        O  0.85327790  0.55427994  0.04543949    -0.57300
O116        O  0.83024287  0.56518099  0.99755170    -0.56400
O117        O  0.65532301  0.54635096  0.89631551    -0.57600
C118        C  0.65996147  0.53520795  0.01212005     0.75000
O119        O  0.70546255  0.58867248  0.98134684    -0.58800
C120        C  0.66538303  0.56022577  0.87242557     0.75000
C121        C  0.65255856  0.58703602  0.96937802     0.77400
Cd122      Cd  0.67150599  0.56604759  0.95597308     1.37500
O123        O  0.65493896  0.53149465  0.97625117    -0.57600
O124        O  0.64345128  0.56870246  0.97209007    -0.56400
C125        C  0.71221079  0.57969410  0.96473421     0.77300
O126        O  0.67061964  0.59574852  0.96260687    -0.58800
O127        O  0.66828295  0.55282588  0.02225396    -0.57300
O128        O  0.67779964  0.57644440  0.88748175    -0.57300
O129        O  0.70041160  0.56560104  0.94317537    -0.56400
O130        O  0.52958413  0.64454402  0.06254824    -0.57600
C131        C  0.52371440  0.65555753  0.95347058     0.75000
O132        O  0.57355279  0.70205963  0.00071501    -0.58800
C133        C  0.54225617  0.64953392  0.08931772     0.75000
C134        C  0.57919838  0.65383339  0.98936940     0.77400
Cd135      Cd  0.55321909  0.66607359  0.01176034     1.37500
O136        O  0.52045977  0.64494902  0.98349848    -0.57600
O137        O  0.56110443  0.64366686  0.98254398    -0.56400
C138        C  0.56289316  0.70547657  0.02147037     0.77300
O139        O  0.58559267  0.67047259  0.00376428    -0.58800
O140        O  0.54098075  0.66986926  0.94881458    -0.57300
O141        O  0.55969422  0.66193691  0.08000250    -0.57300
O142        O  0.54905504  0.69101710  0.03922103    -0.56400
O143        O  0.40851409  0.29864256  0.98454393    -0.57600
C144        C  0.38237383  0.28998245  0.87739323     0.75000
O145        O  0.35110837  0.24575081  0.97469861    -0.58800
C146        C  0.40367891  0.29284351  0.01975013     0.75000
C147        C  0.35393476  0.29973600  0.97163646     0.77400
Cd148      Cd  0.37484204  0.28103569  0.95944422     1.37500
O149        O  0.39580940  0.29867490  0.90274853    -0.57600
O150        O  0.37227312  0.30900364  0.96997995    -0.56400
C151        C  0.36254168  0.24074087  0.96330575     0.77300
O152        O  0.34508836  0.28134591  0.97105004    -0.58800
O153        O  0.36578596  0.27700007  0.89018218    -0.57300
O154        O  0.38567316  0.28340922  0.02739487    -0.57300
O155        O  0.37865634  0.25401449  0.94926020    -0.56400
O156        O  0.28246133  0.42828901  0.00442574    -0.57600
C157        C  0.27050852  0.39512899  0.09791814     0.75000
O158        O  0.23374679  0.36744433  0.00011030    -0.58800
C159        C  0.28722610  0.42889372  0.96883012     0.75000
C160        C  0.28592055  0.37176052  0.99507923     0.77400
Cd161      Cd  0.26841560  0.39336788  0.01347188     1.37500
O162        O  0.28451315  0.40761067  0.07692444    -0.57600
O163        O  0.29437815  0.38720234  0.01508330    -0.56400
C164        C  0.22847074  0.37932109  0.99510374     0.77300
O165        O  0.26917932  0.36638834  0.98206414    -0.58800
O166        O  0.25552174  0.38222068  0.07976923    -0.57300
O167        O  0.28421568  0.41324545  0.95443558    -0.57300
O168        O  0.24166750  0.39714609  0.99717776    -0.56400
O169        O  0.39425684  0.09472105  0.55575509    -0.57600
C170        C  0.40746345  0.10625023  0.44403471     0.75000
O171        O  0.34532425  0.05376723  0.47777484    -0.58800
C172        C  0.37987844  0.08505693  0.57861118     0.75000
C173        C  0.35958378  0.11186488  0.49140241     0.77400
Cd174      Cd  0.37428808  0.08650239  0.49551782     1.37500
O175        O  0.40940644  0.10710830  0.48108986    -0.57600
O176        O  0.35474946  0.09906455  0.46518506    -0.56400
C177        C  0.35443659  0.04522410  0.48019484     0.77300
O178        O  0.36999409  0.11188843  0.51904418    -0.58800
O179        O  0.39025596  0.09606528  0.43094576    -0.57300
O180        O  0.36318948  0.07610242  0.56275073    -0.57300
O181        O  0.37237880  0.05590868  0.48801489    -0.56400
O182        O  0.29252952  0.84078929  0.47304566    -0.57600
C183        C  0.28724064  0.85933947  0.36990273     0.75000
O184        O  0.24494569  0.84540821  0.48049324    -0.58800
C185        C  0.29244034  0.84391525  0.50940694     0.75000
C186        C  0.29404313  0.90028323  0.46136873     0.77400
Cd187      Cd  0.27803651  0.85923377  0.45161131     1.37500
O188        O  0.29884063  0.86086267  0.39669506    -0.57600
O189        O  0.30448506  0.89320512  0.46164974    -0.56400
C190        C  0.23704588  0.82982090  0.46084119     0.77300
O191        O  0.27587171  0.88825127  0.45848519    -0.58800
O192        O  0.27194499  0.85825090  0.38106053    -0.57300
O193        O  0.28627730  0.85462562  0.51855829    -0.57300
O194        O  0.24786605  0.82853508  0.43633931    -0.56400
O195        O  0.83886465  0.30348707  0.49062609    -0.57600
C196        C  0.85768048  0.29159632  0.59155355     0.75000
O197        O  0.84439374  0.25406879  0.48296263    -0.58800
C198        C  0.84217548  0.30450742  0.45403035     0.75000
C199        C  0.89694392  0.30498061  0.49263657     0.77400
Cd200      Cd  0.85620111  0.28729255  0.50758487     1.37500
O201        O  0.85583726  0.30301935  0.56935003    -0.57600
O202        O  0.88951526  0.31483323  0.49922049    -0.56400
C203        C  0.82710006  0.24686108  0.49457340     0.77300
O204        O  0.88527880  0.28671478  0.49200919    -0.58800
O205        O  0.85874132  0.27848049  0.57472142    -0.57300
O206        O  0.85237037  0.29807649  0.44266656    -0.57300
O207        O  0.82358185  0.25836066  0.51142446    -0.56400
O208        O  0.10523046  0.43309504  0.44327456    -0.57600
C209        C  0.07970706  0.40024663  0.34817473     0.75000
O210        O  0.09235460  0.37759488  0.46629431    -0.58800
C211        C  0.10049410  0.43271849  0.47878225     0.75000
C212        C  0.04138502  0.37651278  0.44919087     0.77400
Cd213      Cd  0.08237220  0.39810404  0.43208697     1.37500
O214        O  0.08522585  0.41492834  0.36967289    -0.57600
O215        O  0.05050460  0.39386019  0.43679695    -0.56400
C216        C  0.10776418  0.38406407  0.44647819     0.77300
O217        O  0.05139537  0.36910016  0.45503440    -0.58800
O218        O  0.07548225  0.38471519  0.36565043    -0.57300
O219        O  0.08725014  0.41641130  0.49229650    -0.57300
O220        O  0.11122859  0.39680111  0.42081219    -0.56400
O221        O  0.64520743  0.08395438  0.56917809    -0.57600
C222        C  0.64968959  0.10443734  0.46671442     0.75000
O223        O  0.69558644  0.10423558  0.46995712    -0.58800
C224        C  0.65689646  0.08545005  0.59572577     0.75000
C225        C  0.65327458  0.04667606  0.49740339     0.77400
Cd226      Cd  0.66617649  0.08676071  0.51314643     1.37500
O227        O  0.65699566  0.11044439  0.50048989    -0.57600
O228        O  0.64221616  0.05296256  0.49348314    -0.56400
C229        C  0.70684837  0.11510695  0.49708862     0.77300
O230        O  0.67056265  0.05898924  0.50791577    -0.58800
O231        O  0.64927460  0.08955804  0.45490435    -0.57300
O232        O  0.67222745  0.08684251  0.58393456    -0.57300
O233        O  0.69935236  0.11242965  0.53078697    -0.56400
O234        O  0.53962495  0.86483619  0.42951804    -0.57600
C235        C  0.52389939  0.83839715  0.54132231     0.75000
O236        O  0.56670885  0.83991078  0.52086732    -0.58800
C237        C  0.53916459  0.85242639  0.40673887     0.75000
C238        C  0.58169217  0.90061976  0.49253102     0.77400
Cd239      Cd  0.55543883  0.85861971  0.48532385     1.37500
O240        O  0.54044008  0.85258540  0.55166798    -0.57600
O241        O  0.56338809  0.89207596  0.49318769    -0.56400
C242        C  0.57463863  0.83757889  0.49138661     0.77300
O243        O  0.58809434  0.88960948  0.49050634    -0.58800
O244        O  0.52185558  0.83423620  0.50511542    -0.57300
O245        O  0.54584430  0.84284007  0.42080817    -0.57300
O246        O  0.57498577  0.84628813  0.46012542    -0.56400
O247        O  0.08159482  0.64499764  0.42850778    -0.57600
C248        C  0.08851871  0.64460172  0.54866922     0.75000
O249        O  0.09340710  0.69702709  0.49975448    -0.58800
C250        C  0.07853640  0.65452171  0.40317181     0.75000
C251        C  0.03701384  0.64623950  0.49470970     0.77400
Cd252      Cd  0.07801964  0.66152285  0.48594618     1.37500
O253        O  0.08930525  0.64106615  0.51277394    -0.57600
O254        O  0.04349724  0.63560645  0.48747109    -0.56400
C255        C  0.11011215  0.70183723  0.48783553     0.77300
O256        O  0.04962480  0.66418778  0.49919064    -0.58800
O257        O  0.08221980  0.65545650  0.55543499    -0.57300
O258        O  0.07494147  0.66663968  0.41655318    -0.57300
O259        O  0.11169279  0.68806255  0.47655453    -0.56400
O260        O  0.84140858  0.54072048  0.57874353    -0.57600
C261        C  0.82737376  0.53224389  0.46425208     0.75000
O262        O  0.84405039  0.58696194  0.49311271    -0.58800
C263        C  0.85125287  0.55450268  0.60272175     0.75000
C264        C  0.89134043  0.58186978  0.50476077     0.77400
Cd265      Cd  0.85034551  0.56250990  0.52048391     1.37500
O266        O  0.82596269  0.52857851  0.50079850    -0.57600
O267        O  0.88045213  0.56352890  0.50729144    -0.56400
C268        C  0.83013739  0.58240579  0.51627153     0.77300
O269        O  0.88308442  0.59114976  0.50812500    -0.58800
O270        O  0.84034205  0.54936484  0.45400544    -0.57300
O271        O  0.86029782  0.57151782  0.58850917    -0.57300
O272        O  0.82614397  0.56919678  0.54113200    -0.56400
O273        O  0.64910565  0.54955530  0.55287853    -0.57600
C274        C  0.65468280  0.53464787  0.43712638     0.75000
O275        O  0.67290920  0.59702353  0.47201413    -0.58800
C276        C  0.66281222  0.56003819  0.57668603     0.75000
C277        C  0.70928409  0.57896865  0.48985541     0.77400
Cd278      Cd  0.66898709  0.56592300  0.49294183     1.37500
O279        O  0.65166028  0.53145567  0.47370703    -0.57600
O280        O  0.69588375  0.56139429  0.49548282    -0.56400
C281        C  0.65500409  0.59083630  0.47411613     0.77300
O282        O  0.70403844  0.59082448  0.48400319    -0.58800
O283        O  0.66297138  0.55219672  0.42609387    -0.57300
O284        O  0.67883549  0.57280054  0.56154063    -0.57300
O285        O  0.64377499  0.57319169  0.48388107    -0.56400
O286        O  0.52699583  0.65687564  0.47205415    -0.57600
C287        C  0.54916009  0.66313128  0.37426244     0.75000
O288        O  0.58273234  0.71033106  0.47770244    -0.58800
C289        C  0.52962390  0.66170927  0.50788187     0.75000
C290        C  0.58905347  0.66447675  0.46685210     0.77400
Cd291      Cd  0.56168032  0.67625020  0.45330887     1.37500
O292        O  0.54160088  0.65161441  0.40324440    -0.57600
O293        O  0.57198824  0.65508673  0.48056962    -0.56400
C294        C  0.57419291  0.71669952  0.45753999     0.77300
O295        O  0.59381747  0.67980595  0.44790031    -0.58800
O296        O  0.56266183  0.68038568  0.38210102    -0.57300
O297        O  0.54719933  0.67243328  0.51875486    -0.57300
O298        O  0.56078208  0.70462052  0.43491560    -0.56400
O299        O  0.38809223  0.29599533  0.56101651    -0.57600
C300        C  0.41190554  0.29007893  0.45572817     0.75000
O301        O  0.35973765  0.23965110  0.52432603    -0.58800
C302        C  0.38877770  0.28461989  0.58534368     0.75000
C303        C  0.35186819  0.28858109  0.49451671     0.77400
Cd304      Cd  0.37735911  0.27423712  0.50406783     1.37500
O305        O  0.41240446  0.28780494  0.49249066    -0.57600
O306        O  0.36991748  0.29900203  0.48785212    -0.56400
C307        C  0.35839207  0.23283479  0.49030047     0.77300
O308        O  0.34512878  0.27086681  0.50218948    -0.58800
O309        O  0.39573631  0.28608678  0.44187129    -0.57300
O310        O  0.38496315  0.26859408  0.57147046    -0.57300
O311        O  0.36459998  0.24502418  0.46225341    -0.56400
O312        O  0.27450280  0.39699352  0.41649555    -0.57600
C313        C  0.27715886  0.40666140  0.53290259     0.75000
O314        O  0.22287232  0.35531010  0.48493720    -0.58800
C315        C  0.26322878  0.38406553  0.39211868     0.75000
C316        C  0.27531796  0.35259827  0.48338639     0.77400
Cd317      Cd  0.25919264  0.37664378  0.47499158     1.37500
O318        O  0.28234544  0.41027975  0.49718425    -0.57600
O319        O  0.28454291  0.36973023  0.46988765    -0.56400
C320        C  0.22069914  0.36957455  0.48366011     0.77300
O321        O  0.25831182  0.34637225  0.49597070    -0.58800
O322        O  0.26525134  0.38899602  0.54197253    -0.57300
O323        O  0.25023573  0.36775459  0.40621737    -0.57300
O324        O  0.23589686  0.38614011  0.47829234    -0.56400
C325        C  0.30746329  0.33341313  0.45928773    -0.11200
C326        C  0.30304679  0.32013461  0.48996867     0.15300
C327        C  0.28863658  0.31671941  0.51760927     0.02200
C328        C  0.27919346  0.32683080  0.51400135    -0.15600
C329        C  0.28422160  0.34077470  0.48409772    -0.10400
C330        C  0.29828865  0.34370802  0.45587888     0.09000
C331        C  0.31478395  0.31123518  0.49289611     0.10000
S332        S  0.28201562  0.30017570  0.55868424    -0.24700
H333        H  0.26841012  0.32435904  0.53565402     0.20300
S334        S  0.30427969  0.35992859  0.41423184    -0.30400
H335        H  0.31834221  0.33577623  0.43796352     0.10600
C336        C  0.30727062  0.29167745  0.48313358     0.03800
C337        C  0.31960466  0.28458846  0.48412362    -0.12700
C338        C  0.33939392  0.29671227  0.49421353    -0.08400
C339        C  0.34671066  0.31627161  0.50448054     0.07200
C340        C  0.33444791  0.32328208  0.50319487    -0.13400
S341        S  0.28222226  0.27598609  0.46800802    -0.30400
H342        H  0.31389681  0.26961780  0.47629480     0.11500
S343        S  0.37127065  0.33291134  0.52124611    -0.27500
H344        H  0.34026158  0.33832975  0.51072961     0.08700
H345        H  0.31949188  0.35855650  0.39924822     0.27100
H346        H  0.28265893  0.25920608  0.46232970     0.21900
H347        H  0.37138073  0.31933994  0.54680759     0.27300
H348        H  0.29988963  0.30163488  0.56234309     0.16100
C349        C  0.62118550  0.60856032  0.45540263    -0.11200
C350        C  0.63276341  0.62790045  0.46784913     0.15300
C351        C  0.65226508  0.63548048  0.47897821     0.02200
C352        C  0.65954321  0.62339111  0.47829014    -0.15600
C353        C  0.64765900  0.60372439  0.46756033    -0.10400
C354        C  0.62843778  0.59650948  0.45463037     0.09000
C355        C  0.62366969  0.63938260  0.46951834     0.10000
S356        S  0.66843533  0.66017335  0.49534208    -0.24700
H357        H  0.67431276  0.62915278  0.48813388     0.20300
S358        S  0.61253551  0.57225320  0.43592199    -0.30400
H359        H  0.60632664  0.60281103  0.44612583     0.10600
C360        C  0.62624934  0.65249780  0.43937986     0.03800
C361        C  0.61555644  0.66136990  0.44031789    -0.12700
C362        C  0.60229963  0.65735570  0.47084140    -0.08400
C363        C  0.60077079  0.64511801  0.50225065     0.07200
C364        C  0.61116016  0.63603720  0.50085792    -0.13400
S365        S  0.64239588  0.65713637  0.39880486    -0.30400
H366        H  0.61687456  0.67077081  0.41625941     0.11500
S367        S  0.58615428  0.64074966  0.54529665    -0.27500
H368        H  0.60944946  0.62620222  0.52438980     0.08700
H369        H  0.62739352  0.57153643  0.41698325     0.27100
H370        H  0.63957936  0.67058161  0.37887697     0.21900
H371        H  0.59003286  0.65972927  0.54666692     0.27300
H372        H  0.65410170  0.66294464  0.51009678     0.16100
C373        C  0.79208585  0.59355685  0.53888604    -0.11200
C374        C  0.78756138  0.59661703  0.50081190     0.15300
C375        C  0.79994667  0.59928543  0.46931571     0.02200
C376        C  0.81504524  0.59622158  0.47564605    -0.15600
C377        C  0.81820757  0.59094657  0.51308275    -0.10400
C378        C  0.80748839  0.59106307  0.54547319     0.09000
C379        C  0.76806920  0.59315230  0.49414975     0.10000
S380        S  0.79610779  0.60492866  0.42000444    -0.24700
H381        H  0.82345588  0.59665534  0.45068514     0.20300
S382        S  0.81226975  0.58743216  0.59565569    -0.30400
H383        H  0.78287189  0.59199719  0.56331950     0.10600
C384        C  0.75290208  0.57509453  0.47962960     0.03800
C385        C  0.73403169  0.57120740  0.47760438    -0.12700
C386        C  0.72985053  0.58486035  0.49027273    -0.08400
C387        C  0.74512430  0.60297800  0.50490086     0.07200
C388        C  0.76409188  0.60698141  0.50634860    -0.13400
S389        S  0.75733937  0.55650744  0.46577768    -0.30400
H390        H  0.72235619  0.55726653  0.46673314     0.11500
S391        S  0.74119978  0.62090010  0.52500541    -0.27500
H392        H  0.77570651  0.62065510  0.51844485     0.08700
H393        H  0.83242064  0.59634145  0.59035157     0.27100
H394        H  0.73828086  0.54256815  0.45352699     0.21900
H395        H  0.72453781  0.60734367  0.54639319     0.27300
H396        H  0.78608044  0.61372919  0.43107389     0.16100
C397        C  0.94466628  0.61962642  0.48256022    -0.11200
C398        C  0.95360505  0.61057564  0.49903352     0.15300
C399        C  0.94196689  0.59210384  0.51690073     0.02200
C400        C  0.92173915  0.58284001  0.51663626    -0.15600
C401        C  0.91268300  0.59182230  0.50021847    -0.10400
C402        C  0.92439438  0.61045381  0.48272998     0.09000
C403        C  0.97499589  0.62037279  0.49605785     0.10000
S404        S  0.95201305  0.57974701  0.54137219    -0.24700
H405        H  0.91303297  0.56875065  0.53079086     0.20300
S406        S  0.91446847  0.62301123  0.45882898    -0.30400
H407        H  0.95354044  0.63376251  0.46868217     0.10600
C408        C  0.98340883  0.61289976  0.47202516     0.03800
C409        C  0.00360863  0.62155607  0.47270957    -0.12700
C410        C  0.01575988  0.63788104  0.49621458    -0.08400
C411        C  0.00726541  0.64575064  0.51923062     0.07200
C412        C  0.98703914  0.63699365  0.51867298    -0.13400
S413        S  0.96845004  0.59262137  0.43971888    -0.30400
H414        H  0.01001852  0.61571753  0.45433422     0.11500
S415        S  0.02117049  0.66625577  0.55132607    -0.27500
H416        H  0.98056033  0.64279250  0.53702104     0.08700
H417        H  0.89877493  0.60621254  0.44141651     0.27100
H418        H  0.98365182  0.59191401  0.42249474     0.21900
H419        H  0.03316138  0.66005672  0.56564694     0.27300
H420        H  0.96953884  0.59657487  0.55312884     0.16100
C421        C  0.59456812  0.80714731  0.45948876    -0.11200
C422        C  0.58490494  0.79152350  0.48594378     0.15300
C423        C  0.57510944  0.79304455  0.51837404     0.02200
C424        C  0.57326048  0.80903705  0.52107882    -0.15600
C425        C  0.58137804  0.82392763  0.49254770    -0.10400
C426        C  0.59322870  0.82346966  0.46286160     0.09000
C427        C  0.58284514  0.77286374  0.47612832     0.10000
S428        S  0.56342302  0.77433449  0.55559525    -0.24700
H429        H  0.56444960  0.80923557  0.54452727     0.20300
S430        S  0.60672178  0.84298149  0.42804634    -0.30400
H431        H  0.60255500  0.80627673  0.43512989     0.10600
C432        C  0.56494361  0.75708613  0.46231332     0.03800
C433        C  0.56292420  0.73924925  0.45531265    -0.12700
C434        C  0.57842025  0.73669224  0.46155598    -0.08400
C435        C  0.59670101  0.75286722  0.47333462     0.07200
C436        C  0.59867187  0.77072772  0.48076621    -0.13400
S437        S  0.54456239  0.75963041  0.45359475    -0.30400
H438        H  0.54893533  0.72701544  0.44592117     0.11500
S439        S  0.61809958  0.75185897  0.47825162    -0.27500
H440        H  0.61258242  0.78300870  0.49043420     0.08700
H441        H  0.61105522  0.85777118  0.45507385     0.27100
H442        H  0.53120267  0.74039733  0.44166779     0.21900
H443        H  0.61360892  0.73941664  0.44598272     0.27300
H444        H  0.57564240  0.76726691  0.55164321     0.16100
C445        C  0.62254186  0.99401035  0.46511411    -0.11200
C446        C  0.62790253  0.98504188  0.49320471     0.15300
C447        C  0.64338449  0.99676667  0.51937108     0.02200
C448        C  0.65244012  0.01702367  0.51809261    -0.15600
C449        C  0.64604641  0.02587080  0.49193543    -0.10400
C450        C  0.63142839  0.01419465  0.46410355     0.09000
C451        C  0.61651767  0.96347310  0.49507026     0.10000
S452        S  0.65155856  0.98678262  0.55638386    -0.24700
H453        H  0.66373496  0.02582091  0.53939212     0.20300
S454        S  0.62356501  0.02412635  0.42635281    -0.30400
H455        H  0.61104289  0.98512808  0.44422032     0.10600
C456        C  0.59684477  0.95295799  0.50652005     0.03800
C457        C  0.58610690  0.93259267  0.50588246    -0.12700
C458        C  0.59446702  0.92225988  0.49387066    -0.08400
C459        C  0.61433816  0.93295737  0.48264740     0.07200
C460        C  0.62512781  0.95334779  0.48381535    -0.13400
S461        S  0.58543413  0.96548809  0.52268009    -0.30400
H462        H  0.57101553  0.92466626  0.51478281     0.11500
S463        S  0.62661322  0.92172645  0.46457375    -0.27500
H464        H  0.64021018  0.96142214  0.47470088     0.08700
H465        H  0.64190032  0.04137097  0.42127772     0.27100
H466        H  0.56681665  0.94887992  0.52935946     0.21900
H467        H  0.61201603  0.91026351  0.43680307     0.27300
H468        H  0.63325925  0.96985672  0.56362355     0.16100
C469        C  0.14676662  0.37281414  0.43134783    -0.11200
C470        C  0.15036010  0.36956043  0.47018503     0.15300
C471        C  0.13888228  0.36980516  0.50086954     0.02200
C472        C  0.12460713  0.37385475  0.49219504    -0.15600
C473        C  0.12136546  0.37760204  0.45343139    -0.10400
C474        C  0.13227347  0.37648794  0.42258876     0.09000
C475        C  0.16722960  0.36767453  0.47779720     0.10000
S476        S  0.14197078  0.36545761  0.55173200    -0.24700
H477        H  0.11633274  0.37461519  0.51609902     0.20300
S478        S  0.12823676  0.37927909  0.37136480    -0.30400
H479        H  0.15548817  0.37267934  0.40762399     0.10600
C480        C  0.16826999  0.35231096  0.46209601     0.03800
C481        C  0.18546847  0.35241429  0.46659163    -0.12700
C482        C  0.20157667  0.36750059  0.48678241    -0.08400
C483        C  0.19983781  0.38197771  0.50508981     0.07200
C484        C  0.18297013  0.38216202  0.49966455    -0.13400
S485        S  0.14777503  0.33267841  0.43606533    -0.30400
H486        H  0.18669761  0.34123563  0.45277726     0.11500
S487        S  0.21853823  0.40043744  0.53633912    -0.27500
H488        H  0.18215621  0.39381622  0.51239788     0.08700
H489        H  0.10793632  0.36988373  0.37479309     0.27100
H490        H  0.15582969  0.32141831  0.43036111     0.21900
H491        H  0.22442688  0.38831640  0.55138187     0.27300
H492        H  0.14884121  0.35331247  0.54417985     0.16100
C493        C  0.94723077  0.31519589  0.46857638    -0.11200
C494        C  0.95910376  0.33429979  0.48222194     0.15300
C495        C  0.95051718  0.34357656  0.49908319     0.02200
C496        C  0.93029745  0.33370574  0.50141217    -0.15600
C497        C  0.91822800  0.31459395  0.48748886    -0.10400
C498        C  0.92694063  0.30531742  0.47057807     0.09000
C499        C  0.98019008  0.34490526  0.47451024     0.10000
S500        S  0.96454379  0.36804865  0.51784749    -0.24700
H501        H  0.92397283  0.34103617  0.51476082     0.20300
S502        S  0.91321246  0.28147464  0.44898797    -0.30400
H503        H  0.95383284  0.30821432  0.45485026     0.10600
C504        C  0.99264901  0.34133291  0.49638525     0.03800
C505        C  0.01252726  0.35160389  0.48711546    -0.12700
C506        C  0.02019630  0.36555905  0.45670056    -0.08400
C507        C  0.00748695  0.36902359  0.43492759     0.07200
C508        C  0.98774314  0.35875323  0.44422627    -0.13400
S509        S  0.98332141  0.32429675  0.53700839    -0.30400
H510        H  0.02220606  0.34906185  0.50414408     0.11500
S511        S  0.01518802  0.38574067  0.39399257    -0.27500
H512        H  0.97806608  0.36136967  0.42730722     0.08700
H513        H  0.90042160  0.28505558  0.42846362     0.27100
H514        H  0.00113567  0.32680334  0.54826125     0.21900
H515        H  0.02748342  0.38042720  0.37817364     0.27300
H516        H  0.98113331  0.36786361  0.52812558     0.16100
C517        C  0.79851290  0.19157784  0.48614398    -0.11200
C518        C  0.77956205  0.18742336  0.48099341     0.15300
C519        C  0.77661666  0.20293790  0.47949892     0.02200
C520        C  0.79252019  0.22203541  0.48262098    -0.15600
C521        C  0.81142662  0.22625968  0.48861760    -0.10400
C522        C  0.81442485  0.21076478  0.49035991     0.09000
C523        C  0.76292641  0.16688987  0.48105039     0.10000
S524        S  0.75289957  0.19947112  0.47547165    -0.24700
H525        H  0.78999675  0.23375566  0.48132971     0.20300
S526        S  0.83781751  0.21432240  0.50037427    -0.30400
H527        H  0.80081856  0.17972889  0.48818697     0.10600
C528        C  0.75012789  0.15863391  0.44868366     0.03800
C529        C  0.73230146  0.14082483  0.45354682    -0.12700
C530        C  0.72734412  0.13092129  0.48987159    -0.08400
C531        C  0.74143851  0.13803374  0.52030096     0.07200
C532        C  0.75884197  0.15606871  0.51588130    -0.13400
S533        S  0.75627691  0.17108993  0.40173747    -0.30400
H534        H  0.72179694  0.13517257  0.42973263     0.11500
S535        S  0.73806337  0.12486589  0.56552427    -0.27500
H536        H  0.76899055  0.16202875  0.54033419     0.08700
H537        H  0.84295232  0.22833357  0.52978458     0.27100
H538        H  0.73929221  0.15715697  0.38169352     0.21900
H539        H  0.72692576  0.10635392  0.54827265     0.27300
H540        H  0.74306676  0.18238713  0.49828469     0.16100
C541        C  0.18743032  0.79244137  0.50493679    -0.11200
C542        C  0.17887914  0.77947944  0.47339020     0.15300
C543        C  0.18866312  0.78426477  0.43695673     0.02200
C544        C  0.20724285  0.80108045  0.43365480    -0.15600
C545        C  0.21643422  0.81359497  0.46575414    -0.10400
C546        C  0.20612366  0.80932255  0.50168882     0.09000
C547        C  0.16126194  0.75992631  0.48056181     0.10000
S548        S  0.17869431  0.76894897  0.39413235    -0.24700
H549        H  0.21476357  0.80420180  0.40576739     0.20300
S550        S  0.21652251  0.82370043  0.54543432    -0.30400
H551        H  0.18001172  0.78875354  0.53302095     0.10600
C552        C  0.16272775  0.74360455  0.48442300     0.03800
C553        C  0.14579959  0.72503420  0.48750202    -0.12700
C554        C  0.12723245  0.72222452  0.48689442    -0.08400
C555        C  0.12585927  0.73876120  0.48403289     0.07200
C556        C  0.14287807  0.75740834  0.48145824    -0.13400
S557        S  0.18625079  0.74642772  0.48529777    -0.30400
H558        H  0.14706766  0.71256352  0.49014258     0.11500
S559        S  0.10300686  0.73709906  0.48090466    -0.27500
H560        H  0.14176183  0.76996982  0.47836691     0.08700
H561        H  0.23402153  0.82431486  0.54269542     0.27100
H562        H  0.17945499  0.72663116  0.48982683     0.21900
H563        H  0.09513617  0.72230780  0.45244461     0.27300
H564        H  0.15903600  0.76047290  0.40398326     0.16100
C565        C  0.33772823  0.14180867  0.46371505    -0.11200
C566        C  0.35024579  0.15898899  0.48453207     0.15300
C567        C  0.36478171  0.15997571  0.50894708     0.02200
C568        C  0.36678325  0.14410331  0.51135364    -0.15600
C569        C  0.35475475  0.12701666  0.48974899    -0.10400
C570        C  0.33964808  0.12573925  0.46644659     0.09000
C571        C  0.34827912  0.17590753  0.48040734     0.10000
S572        S  0.38135152  0.18104701  0.53801455    -0.24700
H573        H  0.37839155  0.14545077  0.52959809     0.20300
S574        S  0.32199836  0.10396687  0.44079914    -0.30400
H575        H  0.32631420  0.14087844  0.44548576     0.10600
C576        C  0.35821296  0.18984830  0.45049192     0.03800
C577        C  0.35981821  0.20780107  0.45254004    -0.12700
C578        C  0.35168984  0.21213990  0.48398915    -0.08400
C579        C  0.33997467  0.19727402  0.51154232     0.07200
C580        C  0.33866532  0.17947392  0.50983187    -0.13400
S581        S  0.37060547  0.18556953  0.41206629    -0.30400
H582        H  0.36870740  0.21900757  0.43115109     0.11500
S583        S  0.32656298  0.20015588  0.54976011    -0.27500
H584        H  0.33068852  0.16859141  0.53241074     0.08700
H585        H  0.32011567  0.09136023  0.47141419     0.27100
H586        H  0.37598568  0.20228683  0.38965982     0.21900
H587        H  0.32289627  0.21241823  0.52739221     0.27300
H588        H  0.38250794  0.19515898  0.51231611     0.16100
C589        C  0.32851071  0.95503306  0.45086028    -0.11200
C590        C  0.31878690  0.96179565  0.47245750     0.15300
C591        C  0.30071737  0.94820717  0.48995206     0.02200
C592        C  0.29278874  0.92825927  0.48525231    -0.15600
C593        C  0.30265253  0.92148375  0.46404681    -0.10400
C594        C  0.32063631  0.93514823  0.44620103     0.09000
C595        C  0.32769580  0.98309090  0.47494561     0.10000
S596        S  0.28719792  0.95531513  0.51905072    -0.24700
H597        H  0.27901457  0.91794212  0.49906592     0.20300
S598        S  0.33376858  0.92826475  0.41525395    -0.30400
H599        H  0.34221067  0.96539502  0.43679325     0.10600
C600        C  0.34514278  0.99502768  0.49584193     0.03800
C601        C  0.35354466  0.01517181  0.49624030    -0.12700
C602        C  0.34492512  0.02383666  0.47629416    -0.08400
C603        C  0.32749489  0.01177632  0.45494225     0.07200
C604        C  0.31901789  0.99158740  0.45483111    -0.13400
S605        S  0.35645003  0.98456986  0.52306045    -0.30400
H606        H  0.36680060  0.02421499  0.51285912     0.11500
S607        S  0.31582721  0.02116432  0.42580850    -0.27500
H608        H  0.30576271  0.98243493  0.43820864     0.08700
H609        H  0.31707865  0.91297310  0.39664157     0.27100
H610        H  0.37147679  0.00192820  0.54012911     0.21900
H611        H  0.33331481  0.03695900  0.41067251     0.27300
H612        H  0.30326895  0.97308937  0.53215846     0.16100
C613        C  0.27353590  0.40799545  0.29114677    -0.11200
C614        C  0.27013567  0.39257734  0.26721274     0.15300
C615        C  0.26444710  0.37451167  0.28442937     0.02200
C616        C  0.26195277  0.37210905  0.32511279    -0.15600
C617        C  0.26534111  0.38747775  0.34927936    -0.10400
C618        C  0.27098068  0.40557877  0.33196582     0.09000
C619        C  0.27061353  0.39493840  0.22413473     0.10000
S620        S  0.25958369  0.35381734  0.25591476    -0.24700
H621        H  0.25763052  0.35819158  0.33806771     0.20300
S622        S  0.27379008  0.42562882  0.35979184    -0.30400
H623        H  0.27744961  0.42171642  0.27777323     0.10600
C624        C  0.25337896  0.38864176  0.20287771     0.03800
C625        C  0.25385713  0.38900847  0.16171238    -0.12700
C626        C  0.27124504  0.39554963  0.14133290    -0.08400
C627        C  0.28858659  0.40207419  0.16291371     0.07200
C628        C  0.28813571  0.40204493  0.20408741    -0.13400
S629        S  0.23075513  0.37998636  0.22831960    -0.30400
H630        H  0.24059892  0.38416214  0.14526405     0.11500
S631        S  0.31133021  0.40912032  0.14001836    -0.27500
H632        H  0.30131121  0.40661324  0.22065910     0.08700
H633        H  0.25814212  0.41398407  0.38531803     0.27100
H634        H  0.21892945  0.37497881  0.19458052     0.21900
H635        H  0.30292128  0.39399024  0.11228499     0.27300
H636        H  0.27393378  0.36446144  0.22736977     0.16100
C637        C  0.37438544  0.29200325  0.76795047    -0.11200
C638        C  0.39214247  0.29600715  0.75312333     0.15300
C639        C  0.40749795  0.30053028  0.77935810     0.02200
C640        C  0.40421158  0.29946803  0.81993580    -0.15600
C641        C  0.38599644  0.29415277  0.83488619    -0.10400
C642        C  0.37125221  0.29136582  0.80845425     0.09000
C643        C  0.39344886  0.29382043  0.71044560     0.10000
S644        S  0.43125942  0.30680120  0.76341863    -0.24700
H645        H  0.41574085  0.30199597  0.83994879     0.20300
S646        S  0.34828717  0.28722103  0.82434519    -0.30400
H647        H  0.36275942  0.28901317  0.74775677     0.10600
C648        C  0.38956452  0.27619223  0.69478432     0.03800
C649        C  0.38924899  0.27402022  0.65385053    -0.12700
C650        C  0.39260977  0.28910329  0.62805244    -0.08400
C651        C  0.39748883  0.30715912  0.64432337     0.07200
C652        C  0.39749584  0.30914655  0.68519240    -0.13400
S653        S  0.38404925  0.25614128  0.72700658    -0.30400
H654        H  0.38560760  0.26020049  0.64196910     0.11500
S655        S  0.40376014  0.32825732  0.61514314    -0.27500
H656        H  0.40064460  0.32274843  0.69748985     0.08700
H657        H  0.35599014  0.29933771  0.85750145     0.27100
H658        H  0.38075756  0.24279003  0.69731382     0.21900
H659        H  0.41650431  0.32645665  0.59061467     0.27300
H660        H  0.42973951  0.31064152  0.72367489     0.16100
C661        C  0.29791818  0.33526309  0.95863581    -0.11200
C662        C  0.31277325  0.33885926  0.98503877     0.15300
C663        C  0.31890731  0.35340789  0.01373417     0.02200
C664        C  0.31013325  0.36403422  0.01543837    -0.15600
C665        C  0.29513933  0.36050602  0.98928273    -0.10400
C666        C  0.28919020  0.34603293  0.96010963     0.09000
C667        C  0.32264611  0.32828352  0.98035610     0.10000
S668        S  0.33793957  0.35922586  0.04895785    -0.24700
H669        H  0.31490527  0.37497596  0.03810162     0.20300
S670        S  0.27135722  0.34119105  0.92280996    -0.30400
H671        H  0.29348258  0.32434840  0.93603368     0.10600
C672        C  0.31438247  0.30914724  0.99436173     0.03800
C673        C  0.32479048  0.30008230  0.99080299    -0.12700
C674        C  0.34339869  0.30984855  0.97377106    -0.08400
C675        C  0.35140482  0.32900477  0.95908488     0.07200
C676        C  0.34103775  0.33799277  0.96292920    -0.13400
S677        S  0.29095070  0.29662720  0.01816799    -0.30400
H678        H  0.31854474  0.28543856  0.00197543     0.11500
S679        S  0.37438197  0.34266524  0.93384191    -0.27500
H680        H  0.34730661  0.35269702  0.95200721     0.08700
H681        H  0.27899738  0.36095617  0.91478106     0.27100
H682        H  0.29074851  0.27987591  0.02897782     0.21900
H683        H  0.37075565  0.32702403  0.91005781     0.27300
H684        H  0.33483811  0.34058419  0.05107877     0.16100
C685        C  0.54074214  0.66335881  0.26443104    -0.11200
C686        C  0.53445676  0.64423058  0.25448613     0.15300
C687        C  0.53172439  0.63094113  0.28443448     0.02200
C688        C  0.53601385  0.63730577  0.32351473    -0.15600
C689        C  0.54290571  0.65667230  0.33334462    -0.10400
C690        C  0.54464960  0.66963058  0.30336994     0.09000
C691        C  0.53269579  0.63958251  0.21216779     0.10000
S692        S  0.52323547  0.60592996  0.27459474    -0.24700
H693        H  0.53443692  0.62717162  0.34625438     0.20300
S694        S  0.55139945  0.69420790  0.31261772    -0.30400
H695        H  0.54278566  0.67358417  0.24143830     0.10600
C696        C  0.51882792  0.64017196  0.18837525     0.03800
C697        C  0.52112824  0.64150307  0.14737451    -0.12700
C698        C  0.53706926  0.64227635  0.13004892    -0.08400
C699        C  0.54944056  0.63915781  0.15368896     0.07200
C700        C  0.54729387  0.63810786  0.19457894    -0.13400
S701        S  0.49894690  0.64042442  0.21055897    -0.30400
H702        H  0.51138843  0.64346774  0.12910411     0.11500
S703        S  0.56857590  0.63707043  0.13344366    -0.27500
H704        H  0.55773107  0.63724366  0.21288703     0.08700
H705        H  0.54045271  0.68951064  0.34741111     0.27100
H706        H  0.49036598  0.64129837  0.17520892     0.21900
H707        H  0.55938161  0.62957272  0.09691532     0.27300
H708        H  0.51289984  0.60430143  0.24002296     0.16100
C709        C  0.65462287  0.53978423  0.76814678    -0.11200
C710        C  0.65949342  0.55641774  0.74625443     0.15300
C711        C  0.66582536  0.57399883  0.76595065     0.02200
C712        C  0.66749019  0.57465710  0.80694020    -0.15600
C713        C  0.66287640  0.55811801  0.82913567    -0.10400
C714        C  0.65646481  0.54047870  0.80925601     0.09000
C715        C  0.65979081  0.55562689  0.70288166     0.10000
S716        S  0.67282218  0.59631780  0.74047814    -0.24700
H717        H  0.67244182  0.58828728  0.82163826     0.20300
S718        S  0.65183094  0.51881490  0.83402322    -0.30400
H719        H  0.65017385  0.52639212  0.75293330     0.10600
C720        C  0.67712124  0.56132290  0.68294009     0.03800
C721        C  0.67746074  0.56224570  0.64178102    -0.12700
C722        C  0.66083302  0.55767169  0.61996192    -0.08400
C723        C  0.64333830  0.55160191  0.64016691     0.07200
C724        C  0.64294181  0.55034838  0.68136701    -0.13400
S725        S  0.69885757  0.56755106  0.70999736    -0.30400
H726        H  0.69081814  0.56663420  0.62646594     0.11500
S727        S  0.62151567  0.54663875  0.61559082    -0.27500
H728        H  0.62967541  0.54614804  0.69688983     0.08700
H729        H  0.66840244  0.52868425  0.85833400     0.27100
H730        H  0.71149107  0.57413172  0.67751698     0.21900
H731        H  0.63121576  0.56277368  0.59008087     0.27300
H732        H  0.66020413  0.58776978  0.70820573     0.16100
C733        C  0.61618948  0.60108593  0.99374791    -0.11200
C734        C  0.62259655  0.61724036  0.96895098     0.15300
C735        C  0.63919691  0.62374132  0.94545032     0.02200
C736        C  0.64900813  0.61401721  0.94729862    -0.15600
C737        C  0.64254325  0.59769934  0.97182489    -0.10400
C738        C  0.62604667  0.59141126  0.99577678     0.09000
C739        C  0.61244435  0.62774325  0.97065977     0.10000
S740        S  0.64861237  0.64434429  0.91262548    -0.24700
H741        H  0.66152543  0.61895034  0.92856693     0.20300
S742        S  0.61749760  0.57192907  0.03115652    -0.30400
H743        H  0.60370030  0.59630963  0.01247723     0.10600
C744        C  0.59503185  0.62123807  0.94984310     0.03800
C745        C  0.58491286  0.63048636  0.95548869    -0.12700
C746        C  0.59175672  0.64613439  0.98174591    -0.08400
C747        C  0.60962767  0.65293427  0.00167674     0.07200
C748        C  0.61979016  0.64381262  0.99555759    -0.13400
S749        S  0.58568948  0.60109753  0.91620364    -0.30400
H750        H  0.57139201  0.62525557  0.93982624     0.11500
S751        S  0.61967617  0.67217554  0.03739568    -0.27500
H752        H  0.63317606  0.64877368  0.01164831     0.08700
H753        H  0.63617113  0.57653252  0.04201325     0.27100
H754        H  0.56953854  0.60146839  0.90299598     0.21900
H755        H  0.60236474  0.66371878  0.05927433     0.27300
H756        H  0.63078979  0.64252953  0.90492780     0.16100
C757        C  0.84364016  0.56179110  0.78750330    -0.11200
C758        C  0.84923423  0.54981138  0.77142899     0.15300
C759        C  0.85549543  0.54042697  0.79661249     0.02200
C760        C  0.85645622  0.54360317  0.83723607    -0.15600
C761        C  0.85139879  0.55604968  0.85337966    -0.10400
C762        C  0.84446824  0.56487795  0.82810055     0.09000
C763        C  0.84999023  0.54893474  0.72814655     0.10000
S764        S  0.86334746  0.52503233  0.77874857    -0.24700
H765        H  0.86178040  0.53675190  0.85627362     0.20300
S766        S  0.83620377  0.57998061  0.84559247    -0.30400
H767        H  0.83878778  0.56896402  0.76815159     0.10600
C768        C  0.83341453  0.53605636  0.70566547     0.03800
C769        C  0.83446711  0.53723869  0.66438212    -0.12700
C770        C  0.85175728  0.55120842  0.64539034    -0.08400
C771        C  0.86863894  0.56321094  0.66819758     0.07200
C772        C  0.86750103  0.56209615  0.70923039    -0.13400
S773        S  0.81087364  0.51857070  0.72966819    -0.30400
H774        H  0.82155463  0.52796222  0.64693556     0.11500
S775        S  0.89208163  0.58014644  0.64677842    -0.27500
H776        H  0.88032476  0.57175784  0.72664882     0.08700
H777        H  0.82709237  0.56870799  0.87946443     0.27100
H778        H  0.80048411  0.50907192  0.69524236     0.21900
H779        H  0.88931774  0.56871069  0.61359717     0.27300
H780        H  0.85262552  0.51945755  0.74348836     0.16100
C781        C  0.76337240  0.59853214  0.00507482    -0.11200
C782        C  0.76980613  0.59026664  0.97818153     0.15300
C783        C  0.75753643  0.57921111  0.94664211     0.02200
C784        C  0.73941174  0.57695031  0.94233975    -0.15600
C785        C  0.73255808  0.58470269  0.96972639    -0.10400
C786        C  0.74485615  0.59565923  0.00161273     0.09000
C787        C  0.78845368  0.59171936  0.98560713     0.10000
S788        S  0.76371904  0.56687111  0.91170973    -0.24700
H789        H  0.73028179  0.56840518  0.91783547     0.20300
S790        S  0.73755838  0.60536612  0.04015814    -0.30400
H791        H  0.77258524  0.60668224  0.02982035     0.10600
C792        C  0.80467338  0.60237791  0.96066432     0.03800
C793        C  0.82067087  0.60042825  0.96501214    -0.12700
C794        C  0.82069401  0.58799215  0.99379548    -0.08400
C795        C  0.80509857  0.57870456  0.02085045     0.07200
C796        C  0.78916142  0.58055800  0.01626901    -0.13400
S797        S  0.80461915  0.61779643  0.92236876    -0.30400
H798        H  0.83261100  0.60763320  0.94440388     0.11500
S799        S  0.80442401  0.56394908  0.06138484    -0.27500
H800        H  0.77684886  0.57261738  0.03588677     0.08700
H801        H  0.71973745  0.58778672  0.04678392     0.27100
H802        H  0.82314908  0.62423738  0.90727571     0.21900
H803        H  0.82466537  0.57474376  0.06758211     0.27300
H804        H  0.77387224  0.56222219  0.93833697     0.16100
C805        C  0.08926490  0.64335527  0.30095975    -0.11200
C806        C  0.07951551  0.64958705  0.27725987     0.15300
C807        C  0.06898554  0.65663333  0.29507316     0.02200
C808        C  0.06872539  0.65762537  0.33601130    -0.15600
C809        C  0.07885334  0.65190222  0.36008733    -0.10400
C810        C  0.08930085  0.64468854  0.34209175     0.09000
C811        C  0.08237114  0.65079959  0.23426559     0.10000
S812        S  0.05675694  0.66598129  0.26747180    -0.24700
H813        H  0.06067509  0.66322045  0.34915171     0.20300
S814        S  0.10418786  0.63844648  0.36931369    -0.30400
H815        H  0.09770658  0.63835214  0.28721179     0.10600
C816        C  0.09822782  0.66754254  0.21693139     0.03800
C817        C  0.09916016  0.66948150  0.17590420    -0.12700
C818        C  0.08456154  0.65498418  0.15186163    -0.08400
C819        C  0.06896040  0.63791677  0.16936397     0.07200
C820        C  0.06827585  0.63582931  0.21036346    -0.13400
S821        S  0.11696832  0.68670479  0.24713971    -0.30400
H822        H  0.11117331  0.68247834  0.16246178     0.11500
S823        S  0.04865244  0.61916627  0.14151906    -0.27500
H824        H  0.05602702  0.62303105  0.22387578     0.08700
H825        H  0.11310090  0.65539217  0.39233435     0.27100
H826        H  0.12955525  0.69781825  0.21618328     0.21900
H827        H  0.04722086  0.63211827  0.11639052     0.27300
H828        H  0.05152107  0.65370510  0.23487345     0.16100
C829        C  0.95263697  0.59609243  0.99716743    -0.11200
C830        C  0.96404170  0.61564221  0.00827595     0.15300
C831        C  0.95483736  0.62577544  0.01583598     0.02200
C832        C  0.93461155  0.61626923  0.01115799    -0.15600
C833        C  0.92313224  0.59662021  0.99999520    -0.10400
C834        C  0.93243422  0.58637174  0.99403426     0.09000
C835        C  0.98547587  0.62497365  0.01020376     0.10000
S836        S  0.96801813  0.65074899  0.03168870    -0.24700
H837        H  0.92781925  0.62435748  0.01615889     0.20300
S838        S  0.91957901  0.56073776  0.98366738    -0.30400
H839        H  0.95957609  0.58820502  0.99133665     0.10600
C840        C  0.99400107  0.61782792  0.03559599     0.03800
C841        C  0.01408106  0.62587457  0.03390603    -0.12700
C842        C  0.02602429  0.64127733  0.00812264    -0.08400
C843        C  0.01751575  0.64861172  0.98311306     0.07200
C844        C  0.99738671  0.64035758  0.98434769    -0.13400
S845        S  0.97950544  0.59904217  0.07145901    -0.30400
H846        H  0.02064178  0.62052275  0.05368151     0.11500
S847        S  0.03134559  0.66787684  0.94798366    -0.27500
H848        H  0.99087222  0.64570511  0.96437552     0.08700
H849        H  0.90559896  0.55563634  0.01322250     0.27100
H850        H  0.99465664  0.59776618  0.08775175     0.21900
H851        H  0.04420903  0.66208217  0.93852865     0.27300
H852        H  0.98267830  0.65010286  0.05215782     0.16100
C853        C  0.52603460  0.83492199  0.30098973    -0.11200
C854        C  0.52675754  0.85084882  0.28339315     0.15300
C855        C  0.52803239  0.86547246  0.30742457     0.02200
C856        C  0.53108543  0.86512505  0.34794210    -0.15600
C857        C  0.53230497  0.85012672  0.36530607    -0.10400
C858        C  0.52848756  0.83419981  0.34171352     0.09000
C859        C  0.52900279  0.85292607  0.24011033     0.10000
S860        S  0.52686007  0.88538806  0.28781272    -0.24700
H861        H  0.53330682  0.87712143  0.36571902     0.20300
S862        S  0.52695053  0.81296793  0.36246769    -0.30400
H863        H  0.52457883  0.82350570  0.28237817     0.10600
C864        C  0.54716077  0.86658255  0.22325127     0.03800
C865        C  0.54978598  0.86615241  0.18271458    -0.12700
C866        C  0.53482789  0.85212698  0.15850207    -0.08400
C867        C  0.51644794  0.83875690  0.17538066     0.07200
C868        C  0.51373383  0.83940172  0.21588590    -0.13400
S869        S  0.56750326  0.88374612  0.25356925    -0.30400
H870        H  0.56378010  0.87657938  0.16990325     0.11500
S871        S  0.49632489  0.81968890  0.14778254    -0.27500
H872        H  0.49988949  0.82871573  0.22896340     0.08700
H873        H  0.52032666  0.80152996  0.32825752     0.27100
H874        H  0.58140023  0.89221897  0.22335185     0.21900
H875        H  0.50758576  0.81373641  0.12918900     0.27300
H876        H  0.51645283  0.87580046  0.25348731     0.16100
C877        C  0.57508739  0.78935177  0.06849770    -0.11200
C878        C  0.57616008  0.78251661  0.03146028     0.15300
C879        C  0.57720227  0.79306172  0.99731591     0.02200
C880        C  0.57616025  0.80954241  0.00093873    -0.15600
C881        C  0.57342176  0.81538213  0.03774671    -0.10400
C882        C  0.57387830  0.80571257  0.07202487     0.09000
C883        C  0.57353156  0.76312855  0.02941009     0.10000
S884        S  0.57849306  0.78562829  0.94812803    -0.24700
H885        H  0.57583305  0.81686895  0.97445888     0.20300
S886        S  0.57262453  0.81334215  0.12098366    -0.30400
H887        H  0.57451749  0.78146361  0.09481583     0.10600
C888        C  0.58873648  0.76055612  0.01988956     0.03800
C889        C  0.58492882  0.74162955  0.01741513    -0.12700
C890        C  0.56621383  0.72519826  0.02455735    -0.08400
C891        C  0.55095311  0.72795632  0.03374253     0.07200
C892        C  0.55489958  0.74684294  0.03640391    -0.13400
S893        S  0.61298489  0.78135324  0.01162340    -0.30400
H894        H  0.59662512  0.73962962  0.01033499     0.11500
S895        S  0.52612109  0.70776482  0.04049157    -0.27500
H896        H  0.54331983  0.74903843  0.04342823     0.08700
H897        H  0.58106938  0.83306410  0.11118266     0.27100
H898        H  0.62119380  0.77088257  0.99966936     0.21900
H899        H  0.51738141  0.71859248  0.04113757     0.27300
H900        H  0.56842081  0.76555196  0.95551967     0.16100
C901        C  0.63709327  0.09056500  0.78291444    -0.11200
C902        C  0.64088000  0.07814027  0.76245934     0.15300
C903        C  0.64396203  0.06516038  0.78377656     0.02200
C904        C  0.64385773  0.06532148  0.82491462    -0.15600
C905        C  0.64062844  0.07810783  0.84573042    -0.10400
C906        C  0.63716137  0.09087540  0.82420424     0.09000
C907        C  0.64434415  0.08091536  0.71952872     0.10000
S908        S  0.64891847  0.04860143  0.76020375    -0.24700
H909        H  0.64650941  0.05542188  0.84082668     0.20300
S910        S  0.63449633  0.10906531  0.84723824    -0.30400
H911        H  0.63512508  0.10082963  0.76658225     0.10600
C912        C  0.62907725  0.07207966  0.69184264     0.03800
C913        C  0.63345362  0.07424575  0.65141905    -0.12700
C914        C  0.65282420  0.08527320  0.63825840    -0.08400
C915        C  0.66795387  0.09510762  0.66633427     0.07200
C916        C  0.66357171  0.09250897  0.70647065    -0.13400
S917        S  0.60416260  0.05739577  0.70811778    -0.30400
H918        H  0.62181243  0.06682910  0.63009425     0.11500
S919        S  0.69306603  0.11176366  0.65307803    -0.27500
H920        H  0.67526231  0.09970764  0.72782881     0.08700
H921        H  0.65031560  0.11530892  0.87310033     0.27100
H922        H  0.59559756  0.05385383  0.67050994     0.21900
H923        H  0.68892183  0.11967553  0.62044130     0.27300
H924        H  0.63809320  0.04598282  0.72584887     0.16100
C925        C  0.62366079  0.98976153  0.02101269    -0.11200
C926        C  0.60463274  0.97679233  0.00759219     0.15300
C927        C  0.59373840  0.98427479  0.99290033     0.02200
C928        C  0.60213605  0.00442200  0.99145246    -0.15600
C929        C  0.62142798  0.01754585  0.00374767    -0.10400
C930        C  0.63208346  0.00992801  0.01965888     0.09000
C931        C  0.59615330  0.95556093  0.01148234     0.10000
S932        S  0.56921788  0.96889948  0.97462177    -0.24700
H933        H  0.59369734  0.00987021  0.97916177     0.20300
S934        S  0.65616126  0.02495879  0.04009726    -0.30400
H935        H  0.63190528  0.98408544  0.03328985     0.10600
C936        C  0.60204815  0.94573310  0.98721151     0.03800
C937        C  0.59337696  0.92555516  0.99180632    -0.12700
C938        C  0.57899612  0.91503483  0.02038367    -0.08400
C939        C  0.57377400  0.92515773  0.04570362     0.07200
C940        C  0.58211519  0.94513403  0.04052214    -0.13400
S941        S  0.62009284  0.95878253  0.94948314    -0.30400
H942        H  0.59747035  0.91787142  0.97253694     0.11500
S943        S  0.55735739  0.91366666  0.08659945    -0.27500
H944        H  0.57790926  0.95273093  0.05983599     0.08700
H945        H  0.65218335  0.03769979  0.05893620     0.27100
H946        H  0.62122903  0.94306813  0.93698668     0.21900
H947        H  0.56392615  0.90142733  0.09677492     0.27300
H948        H  0.57142745  0.95408742  0.96052159     0.16100
C949        C  0.07686065  0.41158879  0.15517419    -0.11200
C950        C  0.08452796  0.40331506  0.17931552     0.15300
C951        C  0.09158488  0.39265350  0.16223903     0.02200
C952        C  0.08970801  0.38943026  0.12175287    -0.15600
C953        C  0.08144234  0.39710900  0.09754331    -0.10400
C954        C  0.07518203  0.40855732  0.11446132     0.09000
C955        C  0.08245498  0.40352211  0.22231775     0.10000
S956        S  0.10274299  0.38247025  0.19073300    -0.24700
H957        H  0.09478653  0.38085903  0.10904303     0.20300
S958        S  0.06351305  0.41830495  0.08642547    -0.30400
H959        H  0.07123354  0.41959584  0.16839429     0.10600
C960        C  0.09454490  0.42019630  0.24496225     0.03800
C961        C  0.09271842  0.41899643  0.28609717    -0.12700
C962        C  0.07904674  0.40141206  0.30483375    -0.08400
C963        C  0.06620684  0.38506775  0.28157785     0.07200
C964        C  0.06822692  0.38626136  0.24074458    -0.13400
S965        S  0.11299103  0.44256660  0.22162888    -0.30400
H966        H  0.10252882  0.43155817  0.30378783     0.11500
S967        S  0.04671231  0.36239673  0.30178595    -0.27500
H968        H  0.05865350  0.37357908  0.22305255     0.08700
H969        H  0.05211500  0.40149551  0.06361675     0.27100
H970        H  0.12009201  0.45368785  0.25618674     0.21900
H971        H  0.04231061  0.37106385  0.33190282     0.27300
H972        H  0.11033127  0.39669980  0.22029827     0.16100
C973        C  0.14577558  0.36872775  0.01239301    -0.11200
C974        C  0.15106273  0.36342273  0.97796582     0.15300
C975        C  0.13894306  0.35806069  0.94435153     0.02200
C976        C  0.12252469  0.35937236  0.94521134    -0.15600
C977        C  0.11794427  0.36586189  0.97901178    -0.10400
C978        C  0.12937347  0.36990228  0.01337046     0.09000
C979        C  0.17032653  0.36575849  0.97748733     0.10000
S980        S  0.14420282  0.35045909  0.89904210    -0.24700
H981        H  0.11384287  0.35623119  0.91875094     0.20300
S982        S  0.12401933  0.37697735  0.05925057    -0.30400
H983        H  0.15491361  0.37265714  0.03837444     0.10600
C984        C  0.18622882  0.38177210  0.95834203     0.03800
C985        C  0.20485773  0.38520145  0.96324585    -0.12700
C986        C  0.20809454  0.37323189  0.98756757    -0.08400
C987        C  0.19207431  0.35706161  0.00644792     0.07200
C988        C  0.17336852  0.35338120  0.00080699    -0.13400
S989        S  0.18313375  0.39879959  0.93024327    -0.30400
H990        H  0.21712442  0.39771314  0.94912201     0.11500
S991        S  0.19468829  0.34173711  0.04090996    -0.27500
H992        H  0.16121366  0.34136599  0.01633206     0.08700
H993        H  0.10371539  0.36554846  0.05425298     0.27100
H994        H  0.20225583  0.41010232  0.91584313     0.21900
H995        H  0.21085768  0.35721944  0.06039780     0.27300
H996        H  0.15527544  0.34375354  0.91601864     0.16100
C997        C  0.84270296  0.29491128  0.78054354    -0.11200
C998        C  0.85650110  0.29275844  0.76113361     0.15300
C999        C  0.86885496  0.28908029  0.78320939     0.02200
C1000       C  0.86624628  0.28627339  0.82375879    -0.15600
C1001       C  0.85178396  0.28738910  0.84331119    -0.10400
C1002       C  0.84011626  0.29217334  0.82134086     0.09000
C1003       C  0.85642981  0.29248195  0.71773936     0.10000
S1004       S  0.88780362  0.28714366  0.76132176    -0.24700
H1005       H  0.87562906  0.28308969  0.84016470     0.20300
S1006       S  0.82092690  0.29375660  0.84273829    -0.30400
H1007       H  0.83324545  0.29778210  0.76353104     0.10600
C1008       C  0.84923636  0.27495056  0.69728762     0.03800
C1009       C  0.85007288  0.27527202  0.65619301    -0.12700
C1010       C  0.85790030  0.29273495  0.63493502    -0.08400
C1011       C  0.86526219  0.31033743  0.65564139     0.07200
C1012       C  0.86414061  0.30995969  0.69678670    -0.13400
S1013       S  0.83855429  0.25206694  0.72343317    -0.30400
H1014       H  0.84427773  0.26174932  0.64045363     0.11500
S1015       S  0.87722692  0.33376351  0.63174381    -0.27500
H1016       H  0.86989413  0.32344710  0.71270088     0.08700
H1017       H  0.81286688  0.27610196  0.86356447     0.27100
H1018       H  0.83560573  0.24044797  0.69049213     0.21900
H1019       H  0.88720743  0.32942842  0.60443405     0.27300
H1020       H  0.89099392  0.29908691  0.72850548     0.16100
C1021       C  0.93882059  0.30157899  0.99568489    -0.11200
C1022       C  0.95007303  0.31996940  0.97801359     0.15300
C1023       C  0.94088784  0.32924670  0.96337064     0.02200
C1024       C  0.92073328  0.31994410  0.96655824    -0.15600
C1025       C  0.90926795  0.30132987  0.98349350    -0.10400
C1026       C  0.91852361  0.29217443  0.99885287     0.09000
C1027       C  0.97145403  0.32958695  0.97696264     0.10000
S1028       S  0.95399254  0.35298420  0.94043218    -0.24700
H1029       H  0.91390278  0.32715153  0.95457402     0.20300
S1030       S  0.90490536  0.26904649  0.02416395    -0.30400
H1031       H  0.94607022  0.29475945  0.00748816     0.10600
C1032       C  0.98350096  0.34472587  0.00311187     0.03800
C1033       C  0.00372694  0.35435230  0.99965677    -0.12700
C1034       C  0.01228000  0.34923688  0.97047401    -0.08400
C1035       C  0.00010034  0.33403224  0.94420133     0.07200
C1036       C  0.97984526  0.32418403  0.94813471    -0.13400
S1037       S  0.97309376  0.35164540  0.04119748    -0.30400
H1038       H  0.01296016  0.36583019  0.02015202     0.11500
S1039       S  0.00938785  0.32736908  0.90365642    -0.27500
H1040       H  0.97053533  0.31271640  0.92764222     0.08700
H1041       H  0.92080482  0.26758834  0.03416013     0.27100
H1042       H  0.99060263  0.36833189  0.05364165     0.21900
H1043       H  0.02424059  0.34657890  0.89423661     0.27300
H1044       H  0.96950811  0.35204068  0.92591365     0.16100
C1045       C  0.74333964  0.13948938  0.98721534    -0.11200
C1046       C  0.74694291  0.15818591  0.98149033     0.15300
C1047       C  0.73111200  0.16042068  0.97632583     0.02200
C1048       C  0.71223499  0.14404165  0.97506867    -0.15600
C1049       C  0.70845935  0.12523117  0.97993936    -0.10400
C1050       C  0.72428544  0.12299416  0.98652939     0.09000
C1051       C  0.76716159  0.17515844  0.97777687     0.10000
S1052       S  0.73402513  0.18383960  0.97092539    -0.24700
H1053       H  0.70030694  0.14608874  0.97068722     0.20300
S1054       S  0.72132291  0.09961617  0.99205947    -0.30400
H1055       H  0.75546269  0.13770676  0.99096846     0.10600
C1056       C  0.77944278  0.18359651  0.01074453     0.03800
C1057       C  0.79671298  0.20200345  0.00693952    -0.12700
C1058       C  0.80194826  0.21198643  0.97067389    -0.08400
C1059       C  0.79057955  0.20241814  0.93691725     0.07200
C1060       C  0.77325741  0.18430565  0.94094979    -0.13400
S1061       S  0.77236221  0.17170550  0.05820586    -0.30400
H1062       H  0.80549011  0.20912414  0.03277819     0.11500
S1063       S  0.79719272  0.21254230  0.88792151    -0.27500
H1064       H  0.76406476  0.17755588  0.91536262     0.08700
H1065       H  0.70752969  0.09083573  0.96156315     0.27100
H1066       H  0.78994767  0.18465851  0.07771471     0.21900
H1067       H  0.81732241  0.22144498  0.89389483     0.27300
H1068       H  0.75062773  0.19404366  0.99498410     0.16100
C1069       C  0.27986694  0.84971392  0.26041460    -0.11200
C1070       C  0.29851572  0.86311712  0.24594501     0.15300
C1071       C  0.31399108  0.87384724  0.27274612     0.02200
C1072       C  0.31019008  0.87175729  0.31333582    -0.15600
C1073       C  0.29125209  0.85905106  0.32765429    -0.10400
C1074       C  0.27614179  0.84732871  0.30076831     0.09000
C1075       C  0.30053111  0.86662452  0.20290881     0.10000
S1076       S  0.33866570  0.89068954  0.25698555    -0.24700
H1077       H  0.32194675  0.88060258  0.33375010     0.20300
S1078       S  0.25181421  0.82893619  0.31600972    -0.30400
H1079       H  0.26798659  0.84125268  0.23994816     0.10600
C1080       C  0.29781469  0.85214484  0.17654738     0.03800
C1081       C  0.29566342  0.85433894  0.13619281    -0.12700
C1082       C  0.29619018  0.87076238  0.12167315    -0.08400
C1083       C  0.30077673  0.88606640  0.14782058     0.07200
C1084       C  0.30260373  0.88370793  0.18815401    -0.13400
S1085       S  0.29644474  0.83059390  0.19454389    -0.30400
H1086       H  0.29249755  0.84272625  0.11620845     0.11500
S1087       S  0.30450552  0.90890088  0.13166925    -0.27500
H1088       H  0.30504086  0.89501209  0.20836040     0.08700
H1089       H  0.25763645  0.82351396  0.35017403     0.27100
H1090       H  0.29540816  0.82253334  0.15746913     0.21900
H1091       H  0.31280480  0.90919960  0.09529129     0.27300
H1092       H  0.33697027  0.88187794  0.22052465     0.16100
C1093       C  0.14246654  0.76179661  0.99871303    -0.11200
C1094       C  0.16174903  0.76707980  0.00413685     0.15300
C1095       C  0.16558093  0.75276848  0.01490627     0.02200
C1096       C  0.15015330  0.73358214  0.02014926    -0.15600
C1097       C  0.13077158  0.72808745  0.01470495    -0.10400
C1098       C  0.12692794  0.74251604  0.00430269     0.09000
C1099       C  0.17769371  0.78773710  0.00155231     0.10000
S1100       S  0.18982185  0.75808932  0.02341513    -0.24700
H1101       H  0.15341335  0.72277049  0.02803927     0.20300
S1102       S  0.10269011  0.73761164  0.00009294    -0.30400
H1103       H  0.13950534  0.77286637  0.99126582     0.10600
C1104       C  0.18707432  0.79625086  0.96565184     0.03800
C1105       C  0.20480066  0.81435320  0.96600060    -0.12700
C1106       C  0.21317080  0.82407514  0.00162957    -0.08400
C1107       C  0.20243399  0.81643917  0.03686884     0.07200
C1108       C  0.18503049  0.79822716  0.03654401    -0.13400
S1109       S  0.17740463  0.78322085  0.92003264    -0.30400
H1110       H  0.21280373  0.82021669  0.93884008     0.11500
S1111       S  0.21025086  0.82900039  0.08326825    -0.27500
H1112       H  0.17748763  0.79185480  0.06399857     0.08700
H1113       H  0.09562739  0.72540846  0.03345215     0.27100
H1114       H  0.19103839  0.79818708  0.89510464     0.21900
H1115       H  0.21928121  0.84770836  0.06649469     0.27300
H1116       H  0.19918434  0.77303279  0.99530365     0.16100
C1117       C  0.39770643  0.08875854  0.77137055    -0.11200
C1118       C  0.38417908  0.08972440  0.74753578     0.15300
C1119       C  0.36952767  0.09131549  0.76521710     0.02200
C1120       C  0.36873407  0.09194701  0.80620135    -0.15600
C1121       C  0.38241036  0.09127329  0.83022445    -0.10400
C1122       C  0.39683282  0.08924954  0.81246863     0.09000
C1123       C  0.38485697  0.08791365  0.70443261     0.10000
S1124       S  0.35143560  0.09262804  0.73712297    -0.24700
H1125       H  0.35754120  0.09338582  0.81941205     0.20300
S1126       S  0.41366356  0.08592770  0.84043110    -0.30400
H1127       H  0.40867590  0.08705634  0.75783815     0.10600
C1128       C  0.39882393  0.10350534  0.68106367     0.03800
C1129       C  0.39747786  0.10184216  0.63991830    -0.12700
C1130       C  0.38233182  0.08493963  0.62178369    -0.08400
C1131       C  0.36904265  0.06891065  0.64544225     0.07200
C1132       C  0.37047460  0.07061725  0.68651026    -0.13400
S1133       S  0.41751894  0.12594366  0.70357951    -0.30400
H1134       H  0.40768403  0.11411404  0.62180238     0.11500
S1135       S  0.35050719  0.04608160  0.62380687    -0.27500
H1136       H  0.36008397  0.05857265  0.70497337     0.08700
H1137       H  0.39990484  0.07359758  0.86876227     0.27100
H1138       H  0.42771087  0.13511296  0.66876340     0.21900
H1139       H  0.34086976  0.03679501  0.65900883     0.27300
H1140       H  0.36330137  0.10240801  0.70443060     0.16100
C1141       C  0.35309573  0.15848430  0.93266594    -0.11200
C1142       C  0.35129553  0.16475200  0.96972706     0.15300
C1143       C  0.35036688  0.15414983  0.00363967     0.02200
C1144       C  0.35319125  0.13875901  0.00007557    -0.15600
C1145       C  0.35651575  0.13346381  0.96316818    -0.10400
C1146       C  0.35539592  0.14281463  0.92898629     0.09000
C1147       C  0.35317494  0.18379897  0.97204608     0.10000
S1148       S  0.34664350  0.16024236  0.05226042    -0.24700
H1149       H  0.35367839  0.13147425  0.02645457     0.20300
S1150       S  0.35691646  0.13550914  0.87987162    -0.30400
H1151       H  0.35340968  0.16631079  0.90645834     0.10600
C1152       C  0.37080114  0.20046218  0.98436287     0.03800
C1153       C  0.37310917  0.21868059  0.98173864    -0.12700
C1154       C  0.35818701  0.22075098  0.96727531    -0.08400
C1155       C  0.34038151  0.20401258  0.95555203     0.07200
C1156       C  0.33806447  0.18571655  0.95810006    -0.13400
S1157       S  0.39086672  0.19876403  0.00127511    -0.30400
H1158       H  0.38682930  0.23151369  0.99034274     0.11500
S1159       S  0.32067699  0.20514780  0.93470442    -0.27500
H1160       H  0.32462634  0.17294967  0.94798147     0.08700
H1161       H  0.34799838  0.11566328  0.88914133     0.27100
H1162       H  0.40315617  0.21828363  0.01269337     0.21900
H1163       H  0.33255516  0.22273162  0.91424125     0.27300
H1164       H  0.33663602  0.16898737  0.03996265     0.16100
C1165       C  0.29986083  0.95787061  0.96156849    -0.11200
C1166       C  0.31832979  0.97014371  0.97823284     0.15300
C1167       C  0.32804656  0.96199557  0.99579354     0.02200
C1168       C  0.31933276  0.94187217  0.99563747    -0.15600
C1169       C  0.30075073  0.92943592  0.97939553    -0.10400
C1170       C  0.29102119  0.93764149  0.96169764     0.09000
C1171       C  0.32763195  0.99142691  0.97542418     0.10000
S1172       S  0.35149527  0.97649968  0.01933733    -0.24700
H1173       H  0.32690102  0.93583748  0.00971308     0.20300
S1174       S  0.26780548  0.92329353  0.93737377    -0.30400
H1175       H  0.29249058  0.96413077  0.94761470     0.10600
C1176       C  0.34300731  0.00261833  0.94902865     0.03800
C1177       C  0.35262079  0.02289174  0.94957878    -0.12700
C1178       C  0.34703603  0.03229295  0.97560754    -0.08400
C1179       C  0.33146754  0.02097203  0.00184048     0.07200
C1180       C  0.32179911  0.00066656  0.00113000    -0.13400
S1181       S  0.35015247  0.99104392  0.91413664    -0.30400
H1182       H  0.36434580  0.03146886  0.92906667     0.11500
S1183       S  0.32396279  0.03148940  0.03825489    -0.27500
H1184       H  0.31009318  0.99201813  0.02171346     0.08700
H1185       H  0.27179890  0.91007912  0.92093234     0.27100
H1186       H  0.36475705  0.00812175  0.89531165     0.21900
H1187       H  0.34293686  0.04700356  0.04719193     0.27300
H1188       H  0.34872235  0.99098817  0.03313288     0.16100
C1189       C  0.47709733  0.30503956  0.12742129    -0.11200
C1190       C  0.46085895  0.30563910  0.13730795     0.15300
C1191       C  0.45709671  0.30672782  0.17702663     0.02200
C1192       C  0.46878845  0.30598272  0.20606552    -0.15600
C1193       C  0.48509778  0.30472650  0.19746260    -0.10400
C1194       C  0.48949639  0.30506243  0.15651560     0.09000
C1195       C  0.44675071  0.30288697  0.10633784     0.10000
S1196       S  0.43766471  0.30950927  0.19267039    -0.24700
H1197       H  0.46536336  0.30768557  0.23571706     0.20300
S1198       S  0.51046077  0.30506543  0.13978080    -0.30400
H1199       H  0.47981718  0.30420125  0.09656752     0.10600
C1200       C  0.45083041  0.31725631  0.07789069     0.03800
C1201       C  0.43654981  0.31371668  0.04980079    -0.12700
C1202       C  0.41824665  0.29616497  0.04998884    -0.08400
C1203       C  0.41442829  0.28175225  0.07836041     0.07200
C1204       C  0.42858386  0.28536658  0.10627899    -0.13400
S1205       S  0.47385999  0.34028677  0.07835272    -0.30400
H1206       H  0.43951981  0.32470280  0.02798858     0.11500
S1207       S  0.39228300  0.25798438  0.07937749    -0.27500
H1208       H  0.42553566  0.27425749  0.12792944     0.08700
H1209       H  0.50850057  0.30733118  0.09926777     0.27100
H1210       H  0.46996602  0.34862483  0.04615116     0.21900
H1211       H  0.39117396  0.25563883  0.03829910     0.27300
H1212       H  0.43833700  0.32032514  0.15960043     0.16100
C1213       C  0.45842955  0.29791138  0.41105029    -0.11200
C1214       C  0.45811081  0.30523756  0.37385018     0.15300
C1215       C  0.44381668  0.30942677  0.36533952     0.02200
C1216       C  0.42945137  0.30504613  0.39319727    -0.15600
C1217       C  0.42894519  0.29656425  0.42973269    -0.10400
C1218       C  0.44396576  0.29335120  0.43888109     0.09000
C1219       C  0.46993956  0.30443811  0.34207800     0.10000
S1220       S  0.44238835  0.31916412  0.31844655    -0.24700
H1221       H  0.41824934  0.30781526  0.38575955     0.20300
S1222       S  0.44450410  0.28160765  0.48351603    -0.30400
H1223       H  0.46918283  0.29436603  0.41734138     0.10600
C1224       C  0.48941028  0.31916935  0.33556950     0.03800
C1225       C  0.49885780  0.31849645  0.30181128    -0.12700
C1226       C  0.48914569  0.30358617  0.27323076    -0.08400
C1227       C  0.47021493  0.28737283  0.28385959     0.07200
C1228       C  0.46091154  0.28838988  0.31729964    -0.13400
S1229       S  0.50192661  0.33923598  0.36937724    -0.30400
H1230       H  0.51383727  0.33003271  0.29780731     0.11500
S1231       S  0.45602471  0.26608942  0.25347024    -0.27500
H1232       H  0.44603054  0.27686811  0.32353034     0.08700
H1233       H  0.42510154  0.26588240  0.47966460     0.27100
H1234       H  0.52001398  0.34894227  0.35016199     0.21900
H1235       H  0.44184932  0.25421910  0.28154362     0.27300
H1236       H  0.46221856  0.32861373  0.30908103     0.16100
C1237       C  0.53928181  0.36081516  0.22532307    -0.11200
C1238       C  0.55592624  0.36038850  0.21918779     0.15300
C1239       C  0.55396082  0.34245634  0.21346108     0.02200
C1240       C  0.53563384  0.32534290  0.21601639    -0.15600
C1241       C  0.51858892  0.32506573  0.22571705    -0.10400
C1242       C  0.52072101  0.34367751  0.22756410     0.09000
C1243       C  0.57519211  0.37887705  0.21979581     0.10000
S1244       S  0.57434895  0.34035087  0.20275643    -0.24700
H1245       H  0.53508447  0.31219553  0.20946751     0.20300
S1246       S  0.50059376  0.34668011  0.23492680    -0.30400
H1247       H  0.54096812  0.37477565  0.22918936     0.10600
C1248       C  0.58062705  0.39307615  0.19057236     0.03800
C1249       C  0.59871893  0.41060855  0.19305976    -0.12700
C1250       C  0.61165433  0.41514803  0.22534257    -0.08400
C1251       C  0.60644670  0.39957199  0.25279348     0.07200
C1252       C  0.58834727  0.38204332  0.24979503    -0.13400
S1253       S  0.56485885  0.38850256  0.14883120    -0.30400
H1254       H  0.60263589  0.42040974  0.16859184     0.11500
S1255       S  0.62137716  0.40027418  0.29315707    -0.27500
H1256       H  0.58430109  0.37072917  0.27160471     0.08700
H1257       H  0.51003187  0.36618543  0.22256561     0.27100
H1258       H  0.57603405  0.40704493  0.13143456     0.21900
H1259       H  0.62786516  0.41900087  0.30606967     0.27300
H1260       H  0.58518994  0.35800568  0.18197616     0.16100
C1261       C  0.62117805  0.45814926  0.32064250    -0.11200
C1262       C  0.63835955  0.47645087  0.32117195     0.15300
C1263       C  0.65261881  0.48110024  0.29281881     0.02200
C1264       C  0.64916867  0.46758825  0.26397668    -0.15600
C1265       C  0.63208523  0.44852611  0.26275035    -0.10400
C1266       C  0.61749963  0.44422372  0.29210130     0.09000
C1267       C  0.64091441  0.49058324  0.35131795     0.10000
S1268       S  0.67572920  0.50404205  0.29186350    -0.24700
H1269       H  0.66060579  0.47186724  0.24267352     0.20300
S1270       S  0.59375190  0.42222535  0.29804145    -0.30400
H1271       H  0.61023195  0.45481612  0.34265657     0.10600
C1272       C  0.63914341  0.50636046  0.34183682     0.03800
C1273       C  0.64338174  0.52037106  0.37057982    -0.12700
C1274       C  0.64933316  0.51888740  0.40866175    -0.08400
C1275       C  0.65088856  0.50285737  0.41798880     0.07200
C1276       C  0.64629977  0.48873495  0.38950263    -0.13400
S1277       S  0.63152750  0.50860566  0.29309676    -0.30400
H1278       H  0.64215793  0.53259009  0.36335029     0.11500
S1279       S  0.66023441  0.50037964  0.46435504    -0.27500
H1280       H  0.64787954  0.47670313  0.39652962     0.08700
H1281       H  0.58675384  0.42146201  0.26002727     0.27100
H1282       H  0.63251115  0.52607718  0.29966365     0.21900
H1283       H  0.67559723  0.52002247  0.46604421     0.27300
H1284       H  0.67733234  0.50717677  0.33270981     0.16100
C1285       C  0.66539385  0.50908739  0.09964630    -0.11200
C1286       C  0.64931815  0.49011335  0.09455044     0.15300
C1287       C  0.63716212  0.48582623  0.06133446     0.02200
C1288       C  0.64084412  0.50073627  0.03501602    -0.15600
C1289       C  0.65674586  0.51985985  0.04049459    -0.10400
C1290       C  0.66955570  0.52379540  0.07254325     0.09000
C1291       C  0.64465676  0.47560541  0.12613517     0.10000
S1292       S  0.61677317  0.46163361  0.05101412    -0.24700
H1293       H  0.63116985  0.49736413  0.01009669     0.20300
S1294       S  0.69201096  0.54690383  0.07953136    -0.30400
H1295       H  0.67487207  0.51243624  0.12491362     0.10600
C1296       C  0.65693205  0.46907958  0.13554581     0.03800
C1297       C  0.65228823  0.45620719  0.16724698    -0.12700
C1298       C  0.63506840  0.44879231  0.19004840    -0.08400
C1299       C  0.62321771  0.45637114  0.18038368     0.07200
C1300       C  0.62807657  0.46924689  0.14863697    -0.13400
S1301       S  0.67873966  0.47726400  0.10731585    -0.30400
H1302       H  0.66283552  0.45264140  0.17435224     0.11500
S1303       S  0.60214016  0.45092966  0.20846228    -0.27500
H1304       H  0.61917649  0.47501655  0.14180342     0.08700
H1305       H  0.69712784  0.54944286  0.03943299     0.27100
H1306       H  0.68348298  0.46454440  0.12409534     0.21900
H1307       H  0.59418795  0.45791432  0.18138205     0.27300
H1308       H  0.62464697  0.45179472  0.06895116     0.16100
C1309       C  0.71058358  0.43464858  0.20211411    -0.11200
C1310       C  0.69807493  0.42583578  0.23404399     0.15300
C1311       C  0.70293997  0.41688218  0.26335937     0.02200
C1312       C  0.72132311  0.41943318  0.26290699    -0.15600
C1313       C  0.73545041  0.43084603  0.23382901    -0.10400
C1314       C  0.72845187  0.43614801  0.20011419     0.09000
C1315       C  0.68029212  0.42653948  0.23558116     0.10000
S1316       S  0.68659216  0.40244638  0.30265909    -0.24700
H1317       H  0.72504504  0.41330511  0.28699916     0.20300
S1318       S  0.73915459  0.44266568  0.15153661    -0.30400
H1319       H  0.70611825  0.44011119  0.17784084     0.16600
C1320       C  0.67802494  0.43749432  0.26403757     0.03800
C1321       C  0.66171521  0.43895504  0.26256031    -0.12700
C1322       C  0.64784252  0.43100263  0.23135856    -0.08400
C1323       C  0.64997067  0.41891128  0.20400398     0.07200
C1324       C  0.66600032  0.41700597  0.20664118    -0.13400
S1325       S  0.69648983  0.45060194  0.30131678    -0.30400
H1326       H  0.66011164  0.44638443  0.28666113     0.11500
S1327       S  0.63299544  0.40474877  0.16518640    -0.27500
H1328       H  0.66759028  0.40821249  0.18520595     0.08700
H1329       H  0.74417505  0.42880678  0.15019048     0.27100
H1330       H  0.68696110  0.45791609  0.32203806     0.21900
H1331       H  0.63170183  0.41965405  0.14833413     0.27300
H1332       H  0.66929988  0.39722040  0.28273885     0.16100
C1333       C  0.80108341  0.49074774  0.08280320    -0.11200
C1334       C  0.80841062  0.49277300  0.12105619     0.15300
C1335       C  0.82717737  0.50874074  0.13018447     0.02200
C1336       C  0.83793026  0.52271847  0.10117894    -0.15600
C1337       C  0.83048291  0.52100737  0.06294794    -0.10400
C1338       C  0.81171407  0.50478774  0.05388926     0.09000
C1339       C  0.79568747  0.47846058  0.15114486     0.10000
S1340       S  0.83797425  0.51233364  0.17844724    -0.24700
H1341       H  0.85223622  0.53507925  0.10859336     0.20300
S1342       S  0.79971974  0.50192861  0.00735806    -0.30400
H1343       H  0.78657757  0.47855978  0.07595138     0.10600
C1344       C  0.78597935  0.48273817  0.17887486     0.03800
C1345       C  0.77371408  0.46850299  0.20614806    -0.12700
C1346       C  0.77084797  0.44968971  0.20775201    -0.08400
C1347       C  0.78160016  0.44603372  0.17945308     0.07200
C1348       C  0.79320614  0.46024214  0.15140328    -0.13400
S1349       S  0.78868055  0.50617923  0.17875553    -0.30400
H1350       H  0.76578212  0.47195703  0.22615603     0.11500
S1351       S  0.78233207  0.42457011  0.17423564    -0.27500
H1352       H  0.80093407  0.45726078  0.12971472     0.08700
H1353       H  0.80453768  0.52125547  0.00591874     0.27100
H1354       H  0.77788453  0.50331150  0.21307041     0.21900
H1355       H  0.78756529  0.42373820  0.21310560     0.27300
H1356       H  0.82811913  0.49261109  0.18925094     0.16100
C1357       C  0.79370397  0.46986411  0.32357448    -0.11200
C1358       C  0.78261650  0.47475168  0.34548314     0.15300
C1359       C  0.76336562  0.46753367  0.33406125     0.02200
C1360       C  0.75555876  0.45546520  0.30117858    -0.15600
C1361       C  0.76601457  0.44914394  0.27950161    -0.10400
C1362       C  0.78601287  0.45763036  0.29074095     0.09000
C1363       C  0.79232036  0.48884324  0.37788181     0.10000
S1364       S  0.74807712  0.47360421  0.35967146    -0.24700
H1365       H  0.74131041  0.45184035  0.29250277     0.20300
S1366       S  0.80236024  0.45296854  0.26514302    -0.30400
H1367       H  0.80866512  0.47588212  0.33230467     0.10600
C1368       C  0.79693878  0.48350649  0.41381550     0.03800
C1369       C  0.80802207  0.49783754  0.44206451    -0.12700
C1370       C  0.81449893  0.51739520  0.43503177    -0.08400
C1371       C  0.80870910  0.52238616  0.39990215     0.07200
C1372       C  0.79803633  0.50816279  0.37151173    -0.13400
S1373       S  0.78865076  0.45843556  0.42352399    -0.30400
H1374       H  0.81204452  0.49388559  0.46928680     0.11500
S1375       S  0.81378299  0.54641231  0.39007047    -0.27500
H1376       H  0.79414890  0.51217210  0.34413695     0.08700
H1377       H  0.81990394  0.46859905  0.28043268     0.27100
H1378       H  0.79668799  0.46130356  0.46152980     0.21900
H1379       H  0.81061437  0.54977872  0.42903403     0.27300
H1380       H  0.75647249  0.47569412  0.39705920     0.16100
C1381       C  0.83159817  0.32254565  0.36005437    -0.11200
C1382       C  0.81235671  0.31698240  0.36677636     0.15300
C1383       C  0.80392032  0.30957400  0.40404151     0.02200
C1384       C  0.81469026  0.30728545  0.43326855    -0.15600
C1385       C  0.83349724  0.31157508  0.42569987    -0.10400
C1386       C  0.84231775  0.32012650  0.38918020     0.09000
C1387       C  0.80083515  0.31717289  0.33330033     0.10000
S1388       S  0.77915348  0.30169997  0.41541011    -0.24700
H1389       H  0.80777142  0.30076966  0.46116990     0.20300
S1390       S  0.86711838  0.32823329  0.37790952    -0.30400
H1391       H  0.83816015  0.32844046  0.33157195     0.10600
C1392       C  0.79594204  0.33107681  0.32954714     0.03800
C1393       C  0.78342452  0.32934351  0.29911907    -0.12700
C1394       C  0.77523935  0.31375042  0.27170460    -0.08400
C1395       C  0.78169220  0.30051124  0.27483503     0.07200
C1396       C  0.79408130  0.30240646  0.30561448    -0.13400
S1397       S  0.80595716  0.35126028  0.36327753    -0.30400
H1398       H  0.78038540  0.34057002  0.29703770     0.11500
S1399       S  0.77376128  0.28022061  0.24172386    -0.27500
H1400       H  0.79827527  0.29197478  0.30895858     0.08700
H1401       H  0.87401820  0.33385870  0.41666357     0.27100
H1402       H  0.79629873  0.35985332  0.34785215     0.21900
H1403       H  0.78465496  0.27308624  0.25770323     0.27300
H1404       H  0.77138750  0.29479406  0.37769872     0.16100
C1405       C  0.80063307  0.32300546  0.15883661    -0.11200
C1406       C  0.79047143  0.30703627  0.13410677     0.15300
C1407       C  0.77054047  0.29374004  0.14030543     0.02200
C1408       C  0.76130285  0.29650735  0.17157091    -0.15600
C1409       C  0.77138005  0.31208286  0.19875866    -0.10400
C1410       C  0.79176740  0.32583009  0.19078854     0.09000
C1411       C  0.80167203  0.30365062  0.10506167     0.10000
S1412       S  0.75621859  0.27207753  0.11113073    -0.24700
H1413       H  0.74625566  0.28519961  0.17555085     0.20300
S1414       S  0.80896273  0.34637546  0.22077732    -0.30400
H1415       H  0.81608776  0.33309693  0.15398888     0.10600
C1416       C  0.79977386  0.30524806  0.06422806     0.03800
C1417       C  0.81018683  0.30090480  0.03830021    -0.12700
C1418       C  0.82278725  0.29541972  0.05249008    -0.08400
C1419       C  0.82559500  0.29520567  0.09362541     0.07200
C1420       C  0.81475060  0.29892624  0.11928883    -0.13400
S1421       S  0.78426520  0.31295210  0.04527701    -0.30400
H1422       H  0.80816327  0.30137023  0.00686846     0.11500
S1423       S  0.84318917  0.29100760  0.11547878    -0.27500
H1424       H  0.81659961  0.29825777  0.15078844     0.08700
H1425       H  0.79704038  0.35221464  0.23515076     0.27100
H1426       H  0.78828589  0.31266162  0.00517909     0.21900
H1427       H  0.85762908  0.30211994  0.08723959     0.27300
H1428       H  0.77106734  0.26859412  0.10503949     0.16100
C1429       C  0.74598363  0.34856476  0.26802605    -0.11200
C1430       C  0.75447356  0.36261646  0.23826417     0.15300
C1431       C  0.76427723  0.35995616  0.20769121     0.02200
C1432       C  0.76513136  0.34339091  0.20711314    -0.15600
C1433       C  0.75813157  0.32968608  0.23858606    -0.10400
C1434       C  0.74762028  0.33235697  0.26898720     0.09000
C1435       C  0.75336864  0.38015073  0.24072966     0.10000
S1436       S  0.77724347  0.37788134  0.16982860    -0.24700
H1437       H  0.77214735  0.34196218  0.18185917     0.20300
S1438       S  0.73470144  0.31574388  0.30934513    -0.30400
H1439       H  0.73807538  0.35038862  0.29125448     0.10600
C1440       C  0.74352733  0.38443846  0.21256344     0.03800
C1441       C  0.74436714  0.40201397  0.21512555    -0.12700
C1442       C  0.75470292  0.41575191  0.24550530    -0.08400
C1443       C  0.76078184  0.40882599  0.27802219     0.07200
C1444       C  0.76134426  0.39211732  0.27363209    -0.13400
S1445       S  0.72976674  0.36754552  0.17345537    -0.30400
H1446       H  0.73747976  0.40536043  0.19211839     0.11500
S1447       S  0.76522008  0.41757107  0.32803604    -0.27500
H1448       H  0.76730386  0.38782356  0.29722953     0.08700
H1449       H  0.74766273  0.31014476  0.31814960     0.27100
H1450       H  0.72331289  0.37858262  0.15517649     0.21900
H1451       H  0.74883771  0.41887834  0.33006510     0.27300
H1452       H  0.78675973  0.39308595  0.19713987     0.16100
C1453       C  0.68052917  0.22621447  0.21515658    -0.11200
C1454       C  0.68451643  0.23761089  0.24847435     0.15300
C1455       C  0.67185720  0.22962150  0.28076851     0.02200
C1456       C  0.65578162  0.21044776  0.27902197    -0.15600
C1457       C  0.65046625  0.19876043  0.24465875    -0.10400
C1458       C  0.66445256  0.20697457  0.21287777     0.09000
C1459       C  0.70306403  0.25701921  0.24923087     0.10000
S1460       S  0.67523967  0.24312052  0.32514514    -0.24700
H1461       H  0.64686657  0.20465656  0.30518935     0.20300
S1462       S  0.66581069  0.19376889  0.17185356    -0.30400
H1463       H  0.69105040  0.23215422  0.19146068     0.10600
C1464       C  0.71866552  0.26080523  0.27354295     0.03800
C1465       C  0.73622926  0.27891111  0.27144930    -0.12700
C1466       C  0.74002288  0.29310046  0.24220318    -0.08400
C1467       C  0.72353638  0.28908084  0.21853786     0.07200
C1468       C  0.70560225  0.27137124  0.22273260    -0.13400
S1469       S  0.71676457  0.24219404  0.30598223    -0.30400
H1470       H  0.74686607  0.28151501  0.29335554     0.11500
S1471       S  0.72316058  0.30545629  0.18292619    -0.27500
H1472       H  0.69346943  0.26848604  0.20422200     0.08700
H1473       H  0.67443781  0.20944761  0.14506077     0.27100
H1474       H  0.73643098  0.25212416  0.31742642     0.21900
H1475       H  0.74061868  0.31132933  0.16401295     0.27300
H1476       H  0.68553342  0.26166565  0.30760321     0.16100
C1477       C  0.62036621  0.15585008  0.14006153    -0.11200
C1478       C  0.62324784  0.14059041  0.14471963     0.15300
C1479       C  0.62725485  0.13640905  0.18231173     0.02200
C1480       C  0.62942025  0.14812320  0.21396751    -0.15600
C1481       C  0.62836535  0.16487372  0.21003360    -0.10400
C1482       C  0.62264179  0.16791439  0.17170327     0.09000
C1483       C  0.62507293  0.13111846  0.10962714     0.10000
S1484       S  0.63050765  0.11657154  0.19185071    -0.24700
H1485       H  0.63131700  0.14316125  0.24193721     0.20300
S1486       S  0.61865250  0.18707063  0.15888555    -0.30400
H1487       H  0.61714488  0.15894263  0.11094522     0.10600
C1488       C  0.60913359  0.11414429  0.09305825     0.03800
C1489       C  0.61248153  0.10408104  0.06402578    -0.12700
C1490       C  0.63147097  0.11083829  0.05145406    -0.08400
C1491       C  0.64710894  0.12876665  0.06586323     0.07200
C1492       C  0.64378304  0.13849483  0.09510666    -0.13400
S1493       S  0.58485034  0.10471140  0.11088779    -0.30400
H1494       H  0.60047226  0.09049216  0.05255171     0.11500
S1495       S  0.67166793  0.14009608  0.04794760    -0.27500
H1496       H  0.65597905  0.15177834  0.10731647     0.08700
H1497       H  0.63069039  0.20084234  0.18684863     0.27100
H1498       H  0.57534946  0.08871472  0.08532925     0.21900
H1499       H  0.66627345  0.13353040  0.00900135     0.27300
H1500       H  0.61717394  0.10393522  0.16345071     0.16100
C1501       C  0.64293006  0.14347369  0.42179873    -0.11200
C1502       C  0.63516876  0.13539306  0.38490690     0.15300
C1503       C  0.63006441  0.11627939  0.37695289     0.02200
C1504       C  0.63407909  0.10621205  0.40492437    -0.15600
C1505       C  0.64284216  0.11460215  0.44133707    -0.10400
C1506       C  0.64646303  0.13323593  0.45029785     0.09000
C1507       C  0.63490474  0.14797220  0.35356305     0.10000
S1508       S  0.61938425  0.10436060  0.33076775    -0.24700
H1509       H  0.63080360  0.09187224  0.39756289     0.20300
S1510       S  0.65642286  0.14534043  0.49650846    -0.30400
H1511       H  0.64676384  0.15811988  0.42803916     0.10600
C1512       C  0.61976399  0.15116673  0.34959738     0.03800
C1513       C  0.61931851  0.16150723  0.31676332    -0.12700
C1514       C  0.63343802  0.16834406  0.28628392    -0.08400
C1515       C  0.64994209  0.16687618  0.29381443     0.07200
C1516       C  0.65007881  0.15638664  0.32651868    -0.13400
S1517       S  0.60055928  0.14135584  0.38567274    -0.30400
H1518       H  0.60734613  0.16351195  0.31487616     0.11500
S1519       S  0.67038706  0.17629871  0.26072854    -0.27500
H1520       H  0.66187927  0.15412070  0.33050845     0.08700
H1521       H  0.64225235  0.12944842  0.51896429     0.27100
H1522       H  0.58809232  0.14516647  0.36454342     0.21900
H1523       H  0.68339848  0.17584392  0.28738035     0.27300
H1524       H  0.60998843  0.11417953  0.32238616     0.16100
C1525       C  0.54211768  0.16517921  0.24481058    -0.11200
C1526       C  0.56049205  0.18210803  0.23852863     0.15300
C1527       C  0.56103634  0.19893991  0.22584804     0.02200
C1528       C  0.54405753  0.19932216  0.22683785    -0.15600
C1529       C  0.52540553  0.18230755  0.23325228    -0.10400
C1530       C  0.52483386  0.16460022  0.23855451     0.09000
C1531       C  0.57831895  0.18111906  0.24355319     0.10000
S1532       S  0.58213794  0.21960400  0.20336967    -0.24700
H1533       H  0.54548182  0.21287405  0.21906479     0.20300
S1534       S  0.50245278  0.14083344  0.23955904    -0.30400
H1535       H  0.54113423  0.15201320  0.25419223     0.10600
C1536       C  0.59553051  0.19573761  0.26212862     0.03800
C1537       C  0.61229278  0.19491400  0.26113994    -0.12700
C1538       C  0.61190179  0.17805959  0.24918567    -0.08400
C1539       C  0.59294023  0.16173181  0.23859970     0.07200
C1540       C  0.57751400  0.16427347  0.23197914    -0.13400
S1541       S  0.59595694  0.21456241  0.29067352    -0.30400
H1542       H  0.62532438  0.20771557  0.27075626     0.11500
S1543       S  0.58626713  0.13688398  0.23248175    -0.27500
H1544       H  0.56430296  0.15237422  0.21900373     0.08700
H1545       H  0.51078171  0.12972880  0.23540169     0.27100
H1546       H  0.61501514  0.22330875  0.30541282     0.21900
H1547       H  0.59794593  0.13685535  0.26269266     0.27300
H1548       H  0.59008128  0.20920243  0.18940698     0.16100
C1549       C  0.51721915  0.27068431  0.25321473    -0.11200
C1550       C  0.50618869  0.25513634  0.22736203     0.15300
C1551       C  0.49130042  0.25502801  0.20553558     0.02200
C1552       C  0.49008051  0.27149251  0.20512103    -0.15600
C1553       C  0.50110849  0.28733257  0.23099680    -0.10400
C1554       C  0.51382769  0.28568475  0.25772204     0.09000
C1555       C  0.50977147  0.23887734  0.22607857     0.10000
S1556       S  0.47182567  0.23369026  0.18127593    -0.24700
H1557       H  0.47902268  0.27090104  0.18648520     0.20300
S1558       S  0.52689600  0.30293127  0.29691441    -0.30400
H1559       H  0.52847767  0.27096964  0.27067751     0.10600
C1560       C  0.50986720  0.22997466  0.19083474     0.03800
C1561       C  0.50886974  0.21227264  0.19241390    -0.12700
C1562       C  0.51135460  0.20451223  0.22793320    -0.08400
C1563       C  0.51611655  0.21665048  0.26198496     0.07200
C1564       C  0.51358309  0.23230511  0.26113987    -0.13400
S1565       S  0.51231616  0.24148524  0.14360446    -0.30400
H1566       H  0.50547971  0.20462473  0.16520476     0.11500
S1567       S  0.52410578  0.21295551  0.30911109    -0.27500
H1568       H  0.51467252  0.23944909  0.28863003     0.08700
H1569       H  0.53561193  0.29377404  0.31423682     0.27100
H1570       H  0.51344104  0.22792576  0.12049805     0.21900
H1571       H  0.53518783  0.20600979  0.29481688     0.27300
H1572       H  0.47190201  0.22038649  0.20753395     0.16100
C1573       C  0.43955322  0.12303375  0.35341145    -0.11200
C1574       C  0.45419459  0.14191554  0.36446357     0.15300
C1575       C  0.45430442  0.14838025  0.40290512     0.02200
C1576       C  0.43953270  0.13592987  0.42916024    -0.15600
C1577       C  0.42430654  0.11732730  0.41750118    -0.10400
C1578       C  0.42475779  0.11062686  0.37953257     0.09000
C1579       C  0.46871238  0.15446422  0.33451494     0.10000
S1580       S  0.47248370  0.17242745  0.41985193    -0.24700
H1581       H  0.43938493  0.14120786  0.45821235     0.20300
S1582       S  0.40720727  0.08633566  0.36287934    -0.30400
H1583       H  0.43966019  0.11794804  0.32410816     0.10600
C1584       C  0.48699342  0.15689789  0.33270980     0.03800
C1585       C  0.49937122  0.16729124  0.30121869    -0.12700
C1586       C  0.49354754  0.17432399  0.26908292    -0.08400
C1587       C  0.47559290  0.17345888  0.27420950     0.07200
C1588       C  0.46356053  0.16335834  0.30625673    -0.13400
S1589       S  0.49445403  0.14638762  0.37015084    -0.30400
H1590       H  0.51371240  0.16985888  0.30251576     0.11500
S1591       S  0.46629313  0.18464261  0.24267138    -0.27500
H1592       H  0.44968307  0.16204029  0.30885296     0.08700
H1593       H  0.40486558  0.07749083  0.39991409     0.27100
H1594       H  0.51143925  0.15017452  0.35126919     0.21900
H1595       H  0.47260393  0.18272563  0.20605413     0.27300
H1596       H  0.47599024  0.18183454  0.38320445     0.16100
C1597       C  0.45591343  0.12823078  0.06994068    -0.11200
C1598       C  0.45631964  0.14196069  0.09509833     0.15300
C1599       C  0.44227788  0.14685197  0.09053782     0.02200
C1600       C  0.42757562  0.13720909  0.06248010    -0.15600
C1601       C  0.42673531  0.12304941  0.03802186    -0.10400
C1602       C  0.44116212  0.11858832  0.04165126     0.09000
C1603       C  0.47003725  0.14949152  0.12865463     0.10000
S1604       S  0.44193893  0.16480549  0.12052858    -0.24700
H1605       H  0.41667948  0.14084704  0.05962827     0.20300
S1606       S  0.44068994  0.09976761  0.01342464    -0.30400
H1607       H  0.46655714  0.12431324  0.07371884     0.10600
C1608       C  0.46337414  0.14328402  0.16703418     0.03800
C1609       C  0.47574938  0.15307984  0.19871399    -0.12700
C1610       C  0.49474539  0.16999820  0.19379596    -0.08400
C1611       C  0.50224482  0.17361468  0.15431647     0.07200
C1612       C  0.48958903  0.16376841  0.12250900    -0.13400
S1613       S  0.43886917  0.12288772  0.17581505    -0.30400
H1614       H  0.47006622  0.14717283  0.22742302     0.11500
S1615       S  0.52747620  0.19117025  0.14242517    -0.27500
H1616       H  0.49470977  0.16762475  0.09249126     0.08700
H1617       H  0.42034191  0.08703795  0.01400362     0.27100
H1618       H  0.43857734  0.12560318  0.21659936     0.21900
H1619       H  0.52609777  0.18897750  0.10128536     0.27300
H1620       H  0.46205710  0.17627939  0.12782097     0.16100
C1621       C  0.44368617  0.77463026  0.86310019    -0.11200
C1622       C  0.46128258  0.79220936  0.85656020     0.15300
C1623       C  0.46572296  0.80012200  0.81841806     0.02200
C1624       C  0.45366314  0.78935151  0.78707367    -0.15600
C1625       C  0.43697895  0.77025855  0.79197719    -0.10400
C1626       C  0.43108557  0.76402469  0.83183526     0.09000
C1627       C  0.47551764  0.80125181  0.88912473     0.10000
S1628       S  0.48675872  0.82392956  0.80770902    -0.24700
H1629       H  0.45753928  0.79647803  0.75868048     0.20300
S1630       S  0.40846683  0.74187381  0.84420996    -0.30400
H1631       H  0.44013803  0.76890517  0.89284707     0.10600
C1632       C  0.47221122  0.80945811  0.92201788     0.03800
C1633       C  0.48666001  0.81852566  0.95111985    -0.12700
C1634       C  0.50438355  0.81966542  0.94781629    -0.08400
C1635       C  0.50722784  0.81064372  0.91557094     0.07200
C1636       C  0.49289508  0.80176835  0.88650262    -0.13400
S1637       S  0.45008663  0.80927836  0.92587717    -0.30400
H1638       H  0.48439681  0.82530658  0.97599738     0.11500
S1639       S  0.52840582  0.80927729  0.91043487    -0.27500
H1640       H  0.49524211  0.79505922  0.86155311     0.08700
H1641       H  0.40897707  0.74503455  0.88497518     0.27100
H1642       H  0.45495810  0.82002344  0.96091128     0.21900
H1643       H  0.52999440  0.80636380  0.95083138     0.27300
H1644       H  0.48776781  0.83199072  0.84475145     0.16100
C1645       C  0.49170040  0.82112257  0.63271290    -0.11200
C1646       C  0.47884489  0.80137884  0.62406273     0.15300
C1647       C  0.48018146  0.79419501  0.58734786     0.02200
C1648       C  0.49471111  0.80679307  0.56087736    -0.15600
C1649       C  0.50801967  0.82647424  0.56982966    -0.10400
C1650       C  0.50621042  0.83379450  0.60602033     0.09000
C1651       C  0.46452677  0.78879100  0.65444032     0.10000
S1652       S  0.46470442  0.76904520  0.57284145    -0.24700
H1653       H  0.49594189  0.80096366  0.53325429     0.20300
S1654       S  0.52177451  0.85925238  0.61812684    -0.30400
H1655       H  0.49038576  0.82654058  0.66078566     0.10600
C1656       C  0.46925439  0.78043674  0.68507896     0.03800
C1657       C  0.45574522  0.77007839  0.71481061    -0.12700
C1658       C  0.43722536  0.76782372  0.71623057    -0.08400
C1659       C  0.43213810  0.77520754  0.68282866     0.07200
C1660       C  0.44603624  0.78583171  0.65336280    -0.13400
S1661       S  0.49269085  0.78328489  0.68924801    -0.30400
H1662       H  0.46024033  0.76448154  0.73862743     0.11500
S1663       S  0.40810519  0.77014181  0.67230791    -0.27500
H1664       H  0.44239232  0.79165978  0.62849880     0.08700
H1665       H  0.51258467  0.85851957  0.65355721     0.27100
H1666       H  0.49667277  0.78479185  0.64877171     0.21900
H1667       H  0.41386319  0.78636962  0.64793844     0.27300
H1668       H  0.45057390  0.76254841  0.60232249     0.16100
C1669       C  0.44531244  0.69015929  0.74066682    -0.11200
C1670       C  0.42665597  0.68637783  0.74597865     0.15300
C1671       C  0.41076205  0.66703037  0.74544043     0.02200
C1672       C  0.41378782  0.65203753  0.73810856    -0.15600
C1673       C  0.43259090  0.65542663  0.73135646    -0.10400
C1674       C  0.44861673  0.67521323  0.73499544     0.09000
C1675       C  0.42443598  0.70311884  0.75100148     0.10000
S1676       S  0.38623452  0.66039879  0.75535825    -0.24700
H1677       H  0.40096757  0.63755806  0.73955276     0.20300
S1678       S  0.47371745  0.68236674  0.73422079    -0.30400
H1679       H  0.45752638  0.70511228  0.74191315     0.10600
C1680       C  0.43330161  0.71611168  0.78237149     0.03800
C1681       C  0.43303872  0.73306428  0.78317713    -0.12700
C1682       C  0.42292121  0.73731739  0.75479166    -0.08400
C1683       C  0.41411423  0.72381582  0.72287755     0.07200
C1684       C  0.41486906  0.70704217  0.72185959    -0.13400
S1685       S  0.44540455  0.71136113  0.82143940    -0.30400
H1686       H  0.44197434  0.74335887  0.80546254     0.11500
S1687       S  0.40182383  0.72735266  0.68248990    -0.27500
H1688       H  0.40840739  0.69703147  0.69744421     0.08700
H1689       H  0.48190887  0.70204457  0.72439477     0.27100
H1690       H  0.44914378  0.72673443  0.84619676     0.21900
H1691       H  0.39601223  0.71028838  0.66149395     0.27300
H1692       H  0.39138342  0.67577105  0.78135207     0.16100
C1693       C  0.47431309  0.63909147  0.79849783    -0.11200
C1694       C  0.46707836  0.64034431  0.83439284     0.15300
C1695       C  0.45038139  0.64112508  0.83513861     0.02200
C1696       C  0.44112785  0.64029668  0.79970420    -0.15600
C1697       C  0.44799483  0.63887487  0.76217320    -0.10400
C1698       C  0.46591900  0.63926815  0.76269781     0.09000
C1699       C  0.47921114  0.64348800  0.86937990     0.10000
S1700       S  0.44022142  0.64330960  0.88024663    -0.24700
H1701       H  0.42796482  0.64037746  0.80162306     0.20300
S1702       S  0.48138698  0.64192970  0.72232060    -0.30400
H1703       H  0.48768988  0.63927129  0.79849703     0.10600
C1704       C  0.47996892  0.62818205  0.88659691     0.03800
C1705       C  0.49428128  0.63239628  0.91498154    -0.12700
C1706       C  0.50807676  0.65167697  0.92568606    -0.08400
C1707       C  0.50673574  0.66689635  0.90935793     0.07200
C1708       C  0.49242551  0.66263451  0.88125769    -0.13400
S1709       S  0.46310478  0.60341555  0.87133267    -0.30400
H1710       H  0.49520325  0.62074947  0.92777330     0.11500
S1711       S  0.52264175  0.69201377  0.92329483    -0.27500
H1712       H  0.49189522  0.67438620  0.86770966     0.08700
H1713       H  0.48200485  0.65770834  0.70488510     0.27100
H1714       H  0.46956996  0.59471995  0.89776139     0.21900
H1715       H  0.52369323  0.68802789  0.96324820     0.27300
H1716       H  0.44750743  0.63480908  0.90501105     0.16100
C1717       C  0.47907319  0.63773496  0.55450641    -0.11200
C1718       C  0.48364806  0.64822510  0.58963520     0.15300
C1719       C  0.50328522  0.66233610  0.59840245     0.02200
C1720       C  0.51778318  0.66604666  0.57142605    -0.15600
C1721       C  0.51331020  0.65603000  0.53556858    -0.10400
C1722       C  0.49357941  0.64157916  0.52727965     0.09000
C1723       C  0.46791027  0.64389717  0.61763047     0.10000
S1724       S  0.51015785  0.67553532  0.64425619    -0.24700
H1725       H  0.53275325  0.67707304  0.57822686     0.20300
S1726       S  0.48590712  0.62721841  0.48317715    -0.30400
H1727       H  0.46404857  0.62666167  0.54801722     0.10600
C1728       C  0.46348153  0.65778712  0.62659089     0.03800
C1729       C  0.45186596  0.65490717  0.65929702    -0.12700
C1730       C  0.44508462  0.63872423  0.68502477    -0.08400
C1731       C  0.44674875  0.62315283  0.67095277     0.07200
C1732       C  0.45832578  0.62615351  0.63781848    -0.13400
S1733       S  0.47287540  0.67938970  0.59652882    -0.30400
H1734       H  0.44843986  0.66565664  0.66446975     0.11500
S1735       S  0.43732783  0.60052544  0.69770359    -0.27500
H1736       H  0.46127630  0.61524850  0.62957709     0.08700
H1737       H  0.49110893  0.64332535  0.45882510     0.27100
H1738       H  0.46602572  0.68861592  0.61977107     0.21900
H1739       H  0.44032738  0.59045400  0.66819643     0.27300
H1740       H  0.53035599  0.68667877  0.63797605     0.16100
C1741       C  0.29677542  0.81325815  0.89780009    -0.11200
C1742       C  0.30475368  0.82240104  0.86161091     0.15300
C1743       C  0.30800100  0.84094365  0.85406042     0.02200
C1744       C  0.30257060  0.84957406  0.88211764    -0.15600
C1745       C  0.29419081  0.84028230  0.91809102    -0.10400
C1746       C  0.29128226  0.82183439  0.92585247     0.09000
C1747       C  0.30662933  0.81099350  0.83030053     0.10000
S1748       S  0.31879887  0.85420192  0.80898309    -0.24700
H1749       H  0.30500512  0.86373861  0.87582370     0.20300
S1750       S  0.27914761  0.80766660  0.96925027    -0.30400
H1751       H  0.29380366  0.79882078  0.90331823     0.10600
C1752       C  0.31988340  0.80518236  0.83275725     0.03800
C1753       C  0.31994818  0.79324453  0.80337812    -0.12700
C1754       C  0.30678011  0.78638714  0.77088064    -0.08400
C1755       C  0.29451667  0.79406985  0.76768674     0.07200
C1756       C  0.29430715  0.80552664  0.79783057    -0.13400
S1757       S  0.33731707  0.81365949  0.87265170    -0.30400
H1758       H  0.33086499  0.78981562  0.80607768     0.11500
S1759       S  0.27825434  0.78942446  0.72647438    -0.27500
H1760       H  0.28429459  0.81032688  0.79639478     0.08700
H1761       H  0.26434632  0.81155758  0.96808041     0.27100
H1762       H  0.34640681  0.80389572  0.86167680     0.21900
H1763       H  0.27202438  0.80176797  0.73725133     0.27300
H1764       H  0.32966748  0.84589764  0.80122616     0.16100
C1765       C  0.31138189  0.81573439  0.56177108    -0.11200
C1766       C  0.30421714  0.81435622  0.59982726     0.15300
C1767       C  0.29457115  0.82388919  0.60847327     0.02200
C1768       C  0.29148554  0.83381228  0.57858967    -0.15600
C1769       C  0.29814630  0.83484850  0.54008947    -0.10400
C1770       C  0.30879876  0.82616637  0.53205512     0.09000
C1771       C  0.30718228  0.80323349  0.63062471     0.10000
S1772       S  0.28577948  0.82320152  0.65740060    -0.24700
H1773       H  0.28341727  0.84045299  0.58517596     0.20300
S1774       S  0.32007582  0.82840094  0.48526405    -0.30400
H1775       H  0.31928395  0.80887520  0.55538628     0.10600
C1776       C  0.29522292  0.78292488  0.63322911     0.03800
C1777       C  0.29646103  0.77330369  0.66645109    -0.12700
C1778       C  0.30956661  0.78345684  0.69804537    -0.08400
C1779       C  0.32308779  0.80408173  0.69233115     0.07200
C1780       C  0.32136890  0.81340833  0.65929324    -0.13400
S1781       S  0.27725705  0.76929845  0.59556910    -0.30400
H1782       H  0.28614507  0.75785240  0.66816326     0.11500
S1783       S  0.34184838  0.82070564  0.72643402    -0.27500
H1784       H  0.33082372  0.82906619  0.65653679     0.08700
H1785       H  0.32694342  0.84822273  0.48057543     0.27100
H1786       H  0.27254995  0.75078221  0.60794928     0.21900
H1787       H  0.34638061  0.80821722  0.74410631     0.27300
H1788       H  0.27811594  0.83471532  0.64970147     0.16100
C1789       C  0.37037120  0.74370846  0.75892214    -0.11200
C1790       C  0.37341725  0.76227352  0.75774028     0.15300
C1791       C  0.39252990  0.77851627  0.76065346     0.02200
C1792       C  0.40809464  0.77599802  0.75939606    -0.15600
C1793       C  0.40562749  0.75742011  0.75726941    -0.10400
C1794       C  0.38596187  0.74090780  0.76073586     0.09000
C1795       C  0.35654042  0.76439627  0.75235707     0.10000
S1796       S  0.39813868  0.80301237  0.76530754    -0.24700
H1797       H  0.42251894  0.78900607  0.75875958     0.20300
S1798       S  0.37929804  0.71623225  0.77053809    -0.30400
H1799       H  0.35554776  0.73127864  0.75846119     0.10600
C1800       C  0.35484470  0.77353664  0.71884223     0.03800
C1801       C  0.33959927  0.77656709  0.71600721    -0.12700
C1802       C  0.32488644  0.77003699  0.74520627    -0.08400
C1803       C  0.32607591  0.75925411  0.77770365     0.07200
C1804       C  0.34195114  0.75704973  0.78089089    -0.13400
S1805       S  0.37153553  0.78050752  0.67814407    -0.30400
H1806       H  0.33914365  0.78360258  0.68959097     0.11500
S1807       S  0.30798523  0.74669743  0.81596864    -0.27500
H1808       H  0.34291521  0.74937117  0.80602888     0.08700
H1809       H  0.36000619  0.70854821  0.78244232     0.27100
H1810       H  0.36210853  0.78610711  0.65164122     0.21900
H1811       H  0.29765092  0.75572088  0.81293475     0.27300
H1812       H  0.38092281  0.79795570  0.78498086     0.16100
C1813       C  0.26967253  0.71600576  0.73120102    -0.11200
C1814       C  0.25200426  0.71392478  0.74118088     0.15300
C1815       C  0.25266078  0.73117115  0.74957462     0.02200
C1816       C  0.27056736  0.74856940  0.75440633    -0.15600
C1817       C  0.28806534  0.75162643  0.73891985    -0.10400
C1818       C  0.28662042  0.73435398  0.72449905     0.09000
C1819       C  0.23354971  0.69405095  0.74490813     0.10000
S1820       S  0.23155388  0.73294216  0.75082970    -0.24700
H1821       H  0.26991180  0.75947887  0.76948039     0.20300
S1822       S  0.30478865  0.73346888  0.69636958    -0.30400
H1823       H  0.27028952  0.70331001  0.72665259     0.10600
C1824       C  0.22870046  0.67816603  0.72015159     0.03800
C1825       C  0.21149684  0.66002024  0.72705636    -0.12700
C1826       C  0.19627168  0.65795423  0.75072134    -0.08400
C1827       C  0.20075947  0.67505264  0.77203474     0.07200
C1828       C  0.21988673  0.69108187  0.77348868    -0.13400
S1829       S  0.24257357  0.68081906  0.67658487    -0.30400
H1830       H  0.20977418  0.64793523  0.71123938     0.11500
S1831       S  0.18335670  0.67946495  0.79385818    -0.27500
H1832       H  0.22337447  0.70238309  0.79453075     0.08700
H1833       H  0.30944965  0.74925646  0.67183132     0.27100
H1834       H  0.22877767  0.66300512  0.65898889     0.21900
H1835       H  0.16925528  0.67006710  0.76429527     0.27300
H1836       H  0.22092094  0.71817093  0.72299492     0.16100
C1837       C  0.16757484  0.64075959  0.86531017    -0.11200
C1838       C  0.14899058  0.63761105  0.86530937     0.15300
C1839       C  0.13860698  0.63323553  0.82997079     0.02200
C1840       C  0.14721244  0.63312801  0.79504692    -0.15600
C1841       C  0.16617753  0.63644081  0.79299649    -0.10400
C1842       C  0.17635483  0.64019980  0.83015486     0.09000
C1843       C  0.14184578  0.64251409  0.90017600     0.10000
S1844       S  0.11487103  0.62983427  0.82675702    -0.24700
H1845       H  0.13877927  0.63176847  0.76951588     0.20300
S1846       S  0.20109289  0.64578161  0.83393833    -0.30400
H1847       H  0.17554289  0.64458881  0.89284054     0.10600
C1848       C  0.12879906  0.62817347  0.92690902     0.03800
C1849       C  0.11837346  0.63249988  0.95290897    -0.12700
C1850       C  0.12072085  0.65082611  0.95210277    -0.08400
C1851       C  0.13498990  0.66561411  0.92751034     0.07200
C1852       C  0.14538889  0.66127043  0.90177753    -0.13400
S1853       S  0.12440884  0.60405442  0.92556761    -0.30400
H1854       H  0.10773826  0.62136376  0.97257989     0.11500
S1855       S  0.14022186  0.69011152  0.92909344    -0.27500
H1856       H  0.15562205  0.67221386  0.88126315     0.08700
H1857       H  0.20309468  0.64766249  0.87509179     0.27100
H1858       H  0.10944252  0.59572342  0.95369482     0.21900
H1859       H  0.15420722  0.69790543  0.89896651     0.27300
H1860       H  0.10747442  0.61827965  0.86080641     0.16100
C1861       C  0.15031935  0.65032752  0.66700380    -0.11200
C1862       C  0.13228158  0.63286796  0.66535880     0.15300
C1863       C  0.12940491  0.61685751  0.68713907     0.02200
C1864       C  0.14433312  0.61906177  0.71160583    -0.15600
C1865       C  0.16210279  0.63733458  0.71742411    -0.10400
C1866       C  0.16527304  0.65299195  0.69195524     0.09000
C1867       C  0.11733214  0.63228920  0.63935616     0.10000
S1868       S  0.10678717  0.59349227  0.68660118    -0.24700
H1869       H  0.14137388  0.60661580  0.72907586     0.20300
S1870       S  0.18782094  0.67625845  0.68576275    -0.30400
H1871       H  0.15270662  0.66210606  0.64792420     0.10600
C1872       C  0.11017104  0.64422077  0.64702371     0.03800
C1873       C  0.09960010  0.64688304  0.61783261    -0.12700
C1874       C  0.09583209  0.63773446  0.58100351    -0.08400
C1875       C  0.10125238  0.62410726  0.57524349     0.07200
C1876       C  0.11228124  0.62187720  0.60406556    -0.13400
S1877       S  0.11523960  0.65673342  0.69351460    -0.30400
H1878       H  0.09515538  0.65696663  0.62310707     0.11500
S1879       S  0.09481139  0.60925120  0.53193559    -0.27500
H1880       H  0.11747580  0.61241165  0.59844359     0.08700
H1881       H  0.17955881  0.68700273  0.67552655     0.27100
H1882       H  0.10442660  0.66521117  0.68626137     0.21900
H1883       H  0.07591805  0.60560356  0.52943966     0.27300
H1884       H  0.09473226  0.60047733  0.67845312     0.16100
C1885       C  0.28348221  0.47569026  0.82946516    -0.11200
C1886       C  0.29977717  0.48541279  0.85379332     0.15300
C1887       C  0.31554848  0.50367827  0.84228313     0.02200
C1888       C  0.31515960  0.51126271  0.80550291    -0.15600
C1889       C  0.29968725  0.50073827  0.77808425    -0.10400
C1890       C  0.28294192  0.48299359  0.79241413     0.09000
C1891       C  0.30026608  0.47479085  0.88865947     0.10000
S1892       S  0.33677892  0.51786946  0.87285347    -0.24700
H1893       H  0.32736755  0.52569104  0.79898295     0.20300
S1894       S  0.26115182  0.46775933  0.76370209    -0.30400
H1895       H  0.27139360  0.46161285  0.83896133     0.10600
C1896       C  0.28794046  0.47081491  0.92096945     0.03800
C1897       C  0.28532103  0.45689225  0.94890560    -0.12700
C1898       C  0.29438612  0.44651383  0.94449719    -0.08400
C1899       C  0.30784659  0.45161008  0.91364162     0.07200
C1900       C  0.31062783  0.46568472  0.88607819    -0.13400
S1901       S  0.27463344  0.48258253  0.92509135    -0.30400
H1902       H  0.27503847  0.45304642  0.97265446     0.11500
S1903       S  0.32140830  0.44029445  0.90713915    -0.27500
H1904       H  0.32015930  0.46880920  0.86116439     0.08700
H1905       H  0.24895177  0.45614578  0.79469167     0.27100
H1906       H  0.26515660  0.47363977  0.96063498     0.21900
H1907       H  0.32243927  0.43687016  0.94747586     0.27300
H1908       H  0.32740782  0.50999600  0.90900405     0.16100
C1909       C  0.29709356  0.48421197  0.63346805    -0.11200
C1910       C  0.29515315  0.46683819  0.64512923     0.15300
C1911       C  0.29641509  0.46345283  0.68531052     0.02200
C1912       C  0.29817751  0.47676269  0.71312144    -0.15600
C1913       C  0.29922133  0.49412954  0.70256944    -0.10400
C1914       C  0.29943366  0.49800501  0.66119984     0.09000
C1915       C  0.29052281  0.45184226  0.61525099     0.10000
S1916       S  0.29583432  0.44228451  0.70323281    -0.24700
H1917       H  0.29955397  0.47351281  0.74333482     0.20300
S1918       S  0.30141483  0.51978713  0.64240062    -0.30400
H1919       H  0.29620504  0.48667297  0.60233860     0.10600
C1920       C  0.27211888  0.43437871  0.61451283     0.03800
C1921       C  0.26869711  0.41969188  0.58848597    -0.12700
C1922       C  0.28302966  0.42222134  0.56206570    -0.08400
C1923       C  0.30138160  0.43995101  0.56219251     0.07200
C1924       C  0.30490185  0.45460771  0.58868663    -0.13400
S1925       S  0.25270646  0.43101434  0.64579264    -0.30400
H1926       H  0.25454023  0.40635362  0.58790453     0.11500
S1927       S  0.32109413  0.44443432  0.53079858    -0.27500
H1928       H  0.31906873  0.46801353  0.58938478     0.08700
H1929       H  0.30339663  0.51706448  0.60230060     0.27100
H1930       H  0.23897705  0.41161797  0.63543235     0.21900
H1931       H  0.31631409  0.42512588  0.53134987     0.27300
H1932       H  0.30387635  0.43948165  0.66949846     0.16100
C1933       C  0.35722478  0.54622841  0.72687401    -0.11200
C1934       C  0.35830588  0.56382701  0.72362829     0.15300
C1935       C  0.34100210  0.56341997  0.71826995     0.02200
C1936       C  0.32317991  0.54562065  0.71764712    -0.15600
C1937       C  0.32146704  0.52784562  0.72713004    -0.10400
C1938       C  0.33932560  0.52838484  0.72913930     0.09000
C1939       C  0.37774347  0.58227380  0.72465513     0.10000
S1940       S  0.34043906  0.58513158  0.71425859    -0.24700
H1941       H  0.31054563  0.54615652  0.71103188     0.20300
S1942       S  0.34029449  0.50705533  0.73797166    -0.30400
H1943       H  0.37066084  0.54663785  0.72919392     0.10600
C1944       C  0.39039782  0.58714111  0.75692714     0.03800
C1945       C  0.40887895  0.60428156  0.75587280    -0.12700
C1946       C  0.41484961  0.61812412  0.72483629    -0.08400
C1947       C  0.40138492  0.61308854  0.69283469     0.07200
C1948       C  0.38361057  0.59507296  0.69269026    -0.13400
S1949       S  0.38296514  0.57184713  0.80042224    -0.30400
H1950       H  0.41851619  0.60624563  0.77955291     0.11500
S1951       S  0.40578815  0.62952136  0.65231331    -0.27500
H1952       H  0.37383290  0.59103854  0.66785687     0.08700
H1953       H  0.36030514  0.51555211  0.73173513     0.27100
H1954       H  0.39830904  0.58515538  0.82502903     0.21900
H1955       H  0.38827180  0.61768748  0.63166849     0.27300
H1956       H  0.35587218  0.59616247  0.74071259     0.16100
C1957       C  0.18021402  0.59651462  0.70392963    -0.11200
C1958       C  0.18019223  0.58620707  0.73708022     0.15300
C1959       C  0.18002361  0.59335605  0.77441639     0.02200
C1960       C  0.17701331  0.60854091  0.77764135    -0.15600
C1961       C  0.17810879  0.62014710  0.74510467    -0.10400
C1962       C  0.17998298  0.61356761  0.70700319     0.09000
C1963       C  0.18021524  0.56808935  0.73143551     0.10000
S1964       S  0.18462678  0.58458075  0.81954630    -0.24700
H1965       H  0.17400913  0.61086701  0.80683576     0.20300
S1966       S  0.18164572  0.62581479  0.66081177    -0.30400
H1967       H  0.18044772  0.59106343  0.67516870     0.10600
C1968       C  0.16687828  0.55041847  0.75019232     0.03800
C1969       C  0.16866949  0.53439281  0.74605209    -0.12700
C1970       C  0.18028213  0.53352918  0.71612238    -0.08400
C1971       C  0.19358425  0.55169187  0.69673990     0.07200
C1972       C  0.19372604  0.56851580  0.70581431    -0.13400
S1973       S  0.14621009  0.54722838  0.77670765    -0.30400
H1974       H  0.16029392  0.52274967  0.76545317     0.11500
S1975       S  0.21134725  0.55497367  0.66111955    -0.27500
H1976       H  0.20434629  0.58223127  0.69217597     0.08700
H1977       H  0.18466064  0.61422607  0.63533791     0.27100
H1978       H  0.13573573  0.52681789  0.77915685     0.21900
H1979       H  0.21446542  0.57200680  0.64320046     0.27300
H1980       H  0.19609916  0.57855068  0.80231414     0.16100
C1981       C  0.22746475  0.51748419  0.68261039    -0.11200
C1982       C  0.23448740  0.51893274  0.72089435     0.15300
C1983       C  0.22547737  0.52280349  0.75154218     0.02200
C1984       C  0.20926998  0.52389233  0.74311457    -0.15600
C1985       C  0.19924805  0.51755231  0.70663047    -0.10400
C1986       C  0.20981700  0.51578542  0.67470547     0.09000
C1987       C  0.25080902  0.51582589  0.72668936     0.10000
S1988       S  0.23213776  0.52412426  0.80266612    -0.24700
H1989       H  0.20261190  0.52680171  0.76728600     0.20300
S1990       S  0.20352117  0.51146419  0.62272519    -0.30400
H1991       H  0.23540080  0.51641768  0.65837106     0.10600
C1992       C  0.25054138  0.50038219  0.70784990     0.03800
C1993       C  0.26723939  0.49967797  0.70803078    -0.12700
C1994       C  0.28360688  0.51191813  0.73213467    -0.08400
C1995       C  0.28225969  0.52551594  0.75605748     0.07200
C1996       C  0.26699326  0.52848615  0.74994140    -0.13400
S1997       S  0.22840295  0.48035259  0.68624716    -0.30400
H1998       H  0.26644434  0.48807738  0.69166065     0.11500
S1999       S  0.29976068  0.53971682  0.79422469    -0.27500
H2000       H  0.26750984  0.54051211  0.76416311     0.08700
H2001       H  0.19683833  0.52377771  0.61691917     0.27100
H2002       H  0.23570170  0.46898031  0.67490442     0.21900
H2003       H  0.28913505  0.54657715  0.81214184     0.27300
H2004       H  0.23576473  0.50918476  0.80044545     0.16100
C2005       C  0.13206268  0.47535159  0.76759457    -0.11200
C2006       C  0.13963783  0.46749222  0.79272638     0.15300
C2007       C  0.15907859  0.47319006  0.78850451     0.02200
C2008       C  0.17090791  0.48764165  0.76121471    -0.15600
C2009       C  0.16411536  0.49698381  0.73660069    -0.10400
C2010       C  0.14359713  0.48945435  0.73917109     0.09000
C2011       C  0.12679369  0.45335454  0.82309176     0.10000
S2012       S  0.16959440  0.46213416  0.81632942    -0.24700
H2013       H  0.18520191  0.49019499  0.75797095     0.20300
S2014       S  0.13143310  0.49792015  0.70816572    -0.30400
H2015       H  0.11687023  0.47039613  0.77071189     0.10600
C2016       C  0.12868382  0.45855188  0.86303980     0.03800
C2017       C  0.11653716  0.44453530  0.89096324    -0.12700
C2018       C  0.10222243  0.42545336  0.87968854    -0.08400
C2019       C  0.09949991  0.42078371  0.83910921     0.07200
C2020       C  0.11201354  0.43464858  0.81144692    -0.13400
S2021       S  0.14653182  0.48304361  0.87847183    -0.30400
H2022       H  0.11863107  0.44835147  0.92181236     0.11500
S2023       S  0.08002969  0.39776319  0.82041260    -0.27500
H2024       H  0.11015209  0.43089228  0.78050828     0.08700
H2025       H  0.11246050  0.48577868  0.72279541     0.27100
H2026       H  0.13980301  0.48099575  0.91732845     0.21900
H2027       H  0.06613659  0.39623371  0.84702370     0.27300
H2028       H  0.15236365  0.44371820  0.82017514     0.16100
C2029       C  0.15082280  0.47775907  0.61958863    -0.11200
C2030       C  0.14533988  0.48807636  0.59616348     0.15300
C2031       C  0.15129439  0.50713016  0.60640924     0.02200
C2032       C  0.16235780  0.51532727  0.64061712    -0.15600
C2033       C  0.16790575  0.50502863  0.66540463    -0.10400
C2034       C  0.16212576  0.48581837  0.65338170     0.09000
C2035       C  0.13355181  0.47801345  0.56114323     0.10000
S2036       S  0.14545254  0.52188449  0.57725438    -0.24700
H2037       H  0.16601510  0.52975873  0.64796273     0.20300
S2038       S  0.16973794  0.47135043  0.67860769    -0.30400
H2039       H  0.14619980  0.46311778  0.61090685     0.10600
C2040       C  0.14235843  0.47693600  0.52668447     0.03800
C2041       C  0.13087562  0.46300828  0.49822965    -0.12700
C2042       C  0.11080516  0.45007532  0.50396392    -0.08400
C2043       C  0.10181238  0.45259095  0.53671091     0.07200
C2044       C  0.11332666  0.46631138  0.56529483    -0.13400
S2045       S  0.16840725  0.49219978  0.52066569    -0.30400
H2046       H  0.13776752  0.46124530  0.47297529     0.11500
S2047       S  0.07586500  0.43854129  0.54409549    -0.27500
H2048       H  0.10659844  0.46731435  0.59175603     0.08700
H2049       H  0.16467790  0.45742937  0.64905996     0.27100
H2050       H  0.16902461  0.48590211  0.48260518     0.21900
H2051       H  0.07116199  0.43650025  0.50373801     0.27300
H2052       H  0.12965232  0.50688119  0.55630344     0.16100
loop_ 
_geom_bond_atom_site_label_1 
_geom_bond_atom_site_label_2 
_geom_bond_distance 
_geom_bond_site_symmetry_2 
_ccdc_geom_bond_type 
C1         C1970   1.594       .  S
C1         C1985   1.575       .  S
C1         C2009   1.595       .  S
C1         C2033   1.557       .  S
C2         C1889   1.579       .  S
C2         C1913   1.577       .  S
C2         C1937   1.578       .  S
C2         C1994   1.580       .  S
C3         C1826   1.574       .  S
C3         C1841   1.593       .  S
C3         C1865   1.583       .  S
C3         C1961   1.597       .  S
C4         C1754   1.591       .  S
C4         C1778   1.578       .  S
C4         C1802   1.580       .  S
C4         C1817   1.592       .  S
C5         C1673   1.589       .  S
C5         C1697   1.585       .  S
C5         C1730   1.571       .  S
C5         C1946   1.579       .  S
C6         C1625   1.588       .  S
C6         C1658   1.585       .  S
C6         C1682   1.581       .  S
C6         C1793   1.574       .  S
C7         C1529   1.576       .  S
C7         C1562   1.588       .  S
C7         C1586   1.583       .  S
C7         C1610   1.589       .  S
C8         C1457   1.594       .  S
C8         C1481   1.575       .  S
C8         C1514   1.585       .  S
C8         C1538   1.595       .  S
C9         C1394   1.581       .  S
C9         C1409   1.580       .  S
C9         C1433   1.574       .  S
C9         C1466   1.587       .  S
C10        C1313   1.584       .  S
C10        C1346   1.574       .  S
C10        C1361   1.585       .  S
C10        C1442   1.577       .  S
C11        C1250   1.568       .  S
C11        C1265   1.583       .  S
C11        C1298   1.591       .  S
C11        C1322   1.587       .  S
C12        C1193   1.582       .  S
C12        C1226   1.579       .  S
C12        C1241   1.581       .  S
C12        C1553   1.581       .  S
O13          C16   1.268       .  A
O13         Cd18   2.458       .  S
C14          O23   1.264       .  A
C14          O19   1.265   1_554  A
C14        C1601   1.473       .  S
O15          C21   1.268       .  A
O15         Cd18   2.495       .  S
C16          O24   1.266       .  A
C16        C1121   1.477       .  S
C17          O22   1.267       .  A
C17          O20   1.263       .  A
C17        C1178   1.479       .  S
Cd18         O25   2.438       .  S
Cd18         O24   2.440       .  S
Cd18         O23   2.439   1_556  S
Cd18         O19   2.481       .  S
Cd18         O22   2.491       .  S
Cd18         O20   2.431       .  S
C21          O25   1.265       .  A
C21        C1145   1.480       .  S
O26          C29   1.266       .  A
O26         Cd31   2.466       .  S
C27          O36   1.266       .  A
C27          O32   1.263       .  A
C27        C1745   1.482       .  S
O28          C34   1.264   1_556  A
O28         Cd31   2.495   1_556  S
C29          O37   1.266       .  A
C29        C1082   1.481       .  S
C30          O35   1.266       .  A
C30          O33   1.265       .  A
C30        C1169   1.481       .  S
Cd31         O38   2.452       .  S
Cd31         O37   2.462       .  S
Cd31         O36   2.477   1_554  S
Cd31         O32   2.461   1_554  S
Cd31         O35   2.478   1_554  S
Cd31         O33   2.452   1_554  S
C34          O38   1.262       .  A
C34        C1106   1.482       .  S
O39          C42   1.266   1_556  A
O39         Cd44   2.464       .  S
C40          O49   1.265       .  A
C40          O45   1.267       .  A
C40        C1001   1.479       .  S
O41          C47   1.266       .  A
O41         Cd44   2.476       .  S
C42          O50   1.264       .  A
C42        C1418   1.480       .  S
C43          O48   1.267       .  A
C43          O46   1.264       .  A
C43        C1058   1.483       .  S
Cd44         O51   2.451       .  S
Cd44         O50   2.439   1_556  S
Cd44         O49   2.409       .  S
Cd44         O45   2.478       .  S
Cd44         O48   2.495       .  S
Cd44         O46   2.437       .  S
C47          O51   1.265       .  A
C47        C1025   1.485       .  S
O52          C55   1.268       .  A
O52         Cd57   2.454   1_554  S
C53          O62   1.265       .  A
C53          O58   1.266       .  A
C53        C2018   1.483       .  S
O54          C60   1.271       .  A
O54         Cd57   2.503       .  S
C55          O63   1.266       .  A
C55         C953   1.472       .  S
C56          O61   1.269       .  A
C56          O59   1.263       .  A
C56        C1034   1.482       .  S
Cd57         O64   2.412       .  S
Cd57         O63   2.421   1_556  S
Cd57         O62   2.454       .  S
Cd57         O58   2.456       .  S
Cd57         O61   2.506       .  S
Cd57         O59   2.431       .  S
C60          O64   1.263       .  A
C60         C977   1.476       .  S
O65          C68   1.267   1_556  A
O65         Cd70   2.508       .  S
C66          O75   1.264       .  A
C66          O71   1.267       .  A
C66         C905   1.484       .  S
O67          C73   1.269       .  A
O67         Cd70   2.499       .  S
C68          O76   1.264       .  A
C68        C1490   1.478       .  S
C69          O74   1.265       .  A
C69          O72   1.266       .  A
C69         C929   1.492   1_556  S
Cd70         O77   2.424       .  S
Cd70         O76   2.433   1_556  S
Cd70         O75   2.442       .  S
Cd70         O71   2.492       .  S
Cd70         O74   2.480       .  S
Cd70         O72   2.487       .  S
C73          O77   1.265       .  A
C73        C1049   1.483       .  S
O78          C81   1.266       .  A
O78         Cd83   2.462       .  S
C79          O88   1.265       .  A
C79          O84   1.264   1_556  A
C79        C1634   1.478       .  S
O80          C86   1.267       .  A
O80         Cd83   2.511       .  S
C81          O89   1.267       .  A
C81         C866   1.481       .  S
C82          O87   1.268       .  A
C82          O85   1.264       .  A
C82         C881   1.480       .  S
Cd83         O90   2.448       .  S
Cd83         O89   2.432       .  S
Cd83         O88   2.461   1_554  S
Cd83         O84   2.466       .  S
Cd83         O87   2.500       .  S
Cd83         O85   2.451       .  S
C86          O90   1.262       .  A
C86         C938   1.483       .  S
O91          C94   1.263   1_554  A
O91         Cd96   2.476       .  S
C92         O101   1.264       .  A
C92          O97   1.265       .  A
C92         C818   1.472       .  S
O93          C99   1.268       .  A
O93         Cd96   2.478       .  S
C94         O102   1.264       .  A
C94        C1850   1.473       .  S
C95         O100   1.265       .  A
C95          O98   1.264       .  A
C95         C842   1.479       .  S
Cd96        O103   2.424       .  S
Cd96        O102   2.447   1_554  S
Cd96        O101   2.439       .  S
Cd96         O97   2.460       .  S
Cd96        O100   2.484       .  S
Cd96         O98   2.456       .  S
C99         O103   1.266       .  A
C99        C1097   1.482       .  S
O104        C107   1.267   1_556  A
O104       Cd109   2.450       .  S
C105        O114   1.265       .  A
C105        O110   1.266       .  A
C105        C761   1.478       .  S
O106        C112   1.269       .  A
O106       Cd109   2.511       .  S
C107        O115   1.267       .  A
C107       C1337   1.479       .  S
C108        O113   1.269   1_556  A
C108        O111   1.261       .  A
C108        C833   1.490       .  S
Cd109       O116   2.424       .  S
Cd109       O115   2.453   1_556  S
Cd109       O114   2.450       .  S
Cd109       O110   2.465       .  S
Cd109       O113   2.513   1_556  S
Cd109       O111   2.436       .  S
C112        O116   1.261       .  A
C112        C794   1.481       .  S
O117        C120   1.268       .  A
O117       Cd122   2.482       .  S
C118        O127   1.266       .  A
C118        O123   1.268   1_554  A
C118       C1289   1.483       .  S
O119        C125   1.269       .  A
O119       Cd122   2.512       .  S
C120        O128   1.265       .  A
C120        C713   1.481       .  S
C121        O126   1.267       .  A
C121        O124   1.266       .  A
C121        C737   1.487       .  S
Cd122       O129   2.425       .  S
Cd122       O128   2.431       .  S
Cd122       O127   2.442   1_556  S
Cd122       O123   2.477       .  S
Cd122       O126   2.481       .  S
Cd122       O124   2.483       .  S
C125        O129   1.264       .  A
C125        C785   1.491       .  S
O130        C133   1.265       .  A
O130       Cd135   2.476       .  S
C131        O140   1.266       .  A
C131        O136   1.266       .  A
C131       C1706   1.474       .  S
O132        C138   1.269       .  A
O132       Cd135   2.504       .  S
C133        O141   1.265       .  A
C133        C698   1.473       .  S
C134        O139   1.266   1_556  A
C134        O137   1.265       .  A
C134        C746   1.491       .  S
Cd135       O142   2.436       .  S
Cd135       O141   2.435       .  S
Cd135       O140   2.441   1_554  S
Cd135       O136   2.463   1_554  S
Cd135       O139   2.487       .  S
Cd135       O137   2.464   1_554  S
C138        O142   1.262       .  A
C138        C890   1.488       .  S
O143        C146   1.267   1_556  A
O143       Cd148   2.465       .  S
C144        O153   1.265       .  A
C144        O149   1.267       .  A
C144        C641   1.475       .  S
O145        C151   1.270       .  A
O145       Cd148   2.510       .  S
C146        O154   1.266       .  A
C146       C1202   1.478       .  S
C147        O152   1.269       .  A
C147        O150   1.264       .  A
C147        C674   1.484       .  S
Cd148       O155   2.420       .  S
Cd148       O154   2.437   1_556  S
Cd148       O153   2.432       .  S
Cd148       O149   2.461       .  S
Cd148       O152   2.480       .  S
Cd148       O150   2.436       .  S
C151        O155   1.263       .  A
C151       C1154   1.478       .  S
O156        C159   1.265   1_554  A
O156       Cd161   2.452       .  S
C157        O166   1.264       .  A
C157        O162   1.264       .  A
C157        C626   1.475       .  S
O158        C164   1.268   1_554  A
O158       Cd161   2.497       .  S
C159        O167   1.267       .  A
C159       C1898   1.476       .  S
C160        O165   1.267       .  A
C160        O163   1.264   1_556  A
C160        C665   1.486       .  S
Cd161       O168   2.427   1_554  S
Cd161       O167   2.459   1_554  S
Cd161       O166   2.444       .  S
Cd161       O162   2.465       .  S
Cd161       O165   2.490   1_554  S
Cd161       O163   2.432       .  S
C164        O168   1.263       .  A
C164        C986   1.479       .  S
O169        C172   1.268       .  A
O169       Cd174   2.468       .  S
C170        O179   1.265       .  A
C170        O175   1.265       .  A
C170       C1577   1.478       .  S
O171        C177   1.269       .  A
O171       Cd174   2.508       .  S
C172        O180   1.266       .  A
C172       C1130   1.479       .  S
C173        O178   1.262       .  A
C173        O176   1.268       .  A
C173        C569   1.490       .  S
Cd174       O181   2.436       .  S
Cd174       O180   2.434       .  S
Cd174       O179   2.457       .  S
Cd174       O175   2.469       .  S
Cd174       O178   2.427       .  S
Cd174       O176   2.529       .  S
C177        O181   1.264       .  A
C177        C602   1.488       .  S
O182        C185   1.264       .  A
O182       Cd187   2.471       .  S
C183        O192   1.265       .  A
C183        O188   1.266       .  A
C183       C1073   1.477       .  S
O184        C190   1.267       .  A
O184       Cd187   2.504       .  S
C185        O193   1.265       .  A
C185       C1769   1.485       .  S
C186        O191   1.266       .  A
C186        O189   1.264       .  A
C186        C593   1.481       .  S
Cd187       O194   2.442       .  S
Cd187       O193   2.450       .  S
Cd187       O192   2.437       .  S
Cd187       O188   2.487       .  S
Cd187       O191   2.486       .  S
Cd187       O189   2.454       .  S
C190        O194   1.264       .  A
C190        C545   1.487       .  S
O195        C198   1.266       .  A
O195       Cd200   2.469       .  S
C196        O205   1.263       .  A
C196        O201   1.266       .  A
C196       C1010   1.476       .  S
O197        C203   1.267       .  A
O197       Cd200   2.491       .  S
C198        O206   1.266       .  A
C198       C1385   1.479       .  S
C199        O204   1.266       .  A
C199        O202   1.265       .  A
C199        C497   1.483       .  S
Cd200       O207   2.430       .  S
Cd200       O206   2.448       .  S
Cd200       O205   2.427       .  S
Cd200       O201   2.478       .  S
Cd200       O204   2.464       .  S
Cd200       O202   2.437       .  S
C203        O207   1.264       .  A
C203        C521   1.480       .  S
O208        C211   1.264       .  A
O208       Cd213   2.460       .  S
C209        O218   1.265       .  A
C209        O214   1.266       .  A
C209        C962   1.477       .  S
O210        C216   1.267       .  A
O210       Cd213   2.502       .  S
C211        O219   1.264       .  A
C211       C2042   1.474       .  S
C212        O217   1.268       .  A
C212        O215   1.264       .  A
C212        C506   1.481       .  S
Cd213       O220   2.451       .  S
Cd213       O219   2.444       .  S
Cd213       O218   2.442       .  S
Cd213       O214   2.460       .  S
Cd213       O217   2.480       .  S
Cd213       O215   2.441       .  S
C216        O220   1.263       .  A
C216        C473   1.483       .  S
O221        C224   1.266       .  A
O221       Cd226   2.495       .  S
C222        O231   1.267       .  A
C222        O227   1.263       .  A
C222       C1505   1.493       .  S
O223        C229   1.266       .  A
O223       Cd226   2.505       .  S
C224        O232   1.263       .  A
C224        C914   1.483       .  S
C225        O230   1.264       .  A
C225        O228   1.264       .  A
C225        C449   1.482       .  S
Cd226       O233   2.442       .  S
Cd226       O232   2.450       .  S
Cd226       O231   2.483       .  S
Cd226       O227   2.460       .  S
Cd226       O230   2.491       .  S
Cd226       O228   2.466       .  S
C229        O233   1.263       .  A
C229        C530   1.483       .  S
O234        C237   1.265       .  A
O234       Cd239   2.486       .  S
C235        O244   1.264       .  A
C235        O240   1.266       .  A
C235       C1649   1.486       .  S
O236        C242   1.267       .  A
O236       Cd239   2.474       .  S
C237        O245   1.262       .  A
C237        C857   1.486       .  S
C238        O243   1.265       .  A
C238        O241   1.264       .  A
C238        C458   1.493       .  S
Cd239       O246   2.465       .  S
Cd239       O245   2.451       .  S
Cd239       O244   2.460       .  S
Cd239       O240   2.488       .  S
Cd239       O243   2.504       .  S
Cd239       O241   2.463       .  S
C242        O246   1.265       .  A
C242        C425   1.488       .  S
O247        C250   1.267       .  A
O247       Cd252   2.489       .  S
C248        O257   1.267       .  A
C248        O253   1.265       .  A
C248       C1874   1.490       .  S
O249        C255   1.268       .  A
O249       Cd252   2.510       .  S
C250        O258   1.265       .  A
C250        C809   1.483       .  S
C251        O256   1.267       .  A
C251        O254   1.265       .  A
C251        C410   1.485       .  S
Cd252       O259   2.436       .  S
Cd252       O258   2.425       .  S
Cd252       O257   2.467       .  S
Cd252       O253   2.472       .  S
Cd252       O256   2.490       .  S
Cd252       O254   2.448       .  S
C255        O259   1.264       .  A
C255        C554   1.489       .  S
O260        C263   1.267       .  A
O260       Cd265   2.486       .  S
C261        O270   1.264       .  A
C261        O266   1.266       .  A
C261       C1370   1.480       .  S
O262        C268   1.265       .  A
O262       Cd265   2.490       .  S
C263        O271   1.264       .  A
C263        C770   1.476       .  S
C264        O269   1.265       .  A
C264        O267   1.267       .  A
C264        C401   1.482       .  S
Cd265       O272   2.429       .  S
Cd265       O271   2.428       .  S
Cd265       O270   2.446       .  S
Cd265       O266   2.481       .  S
Cd265       O269   2.459       .  S
Cd265       O267   2.461       .  S
C268        O272   1.262       .  A
C268        C377   1.478       .  S
O273        C276   1.266       .  A
O273       Cd278   2.496       .  S
C274        O283   1.266       .  A
C274        O279   1.266       .  A
C274       C1274   1.481       .  S
O275        C281   1.266       .  A
O275       Cd278   2.483       .  S
C276        O284   1.262       .  A
C276        C722   1.479       .  S
C277        O282   1.268       .  A
C277        O280   1.264       .  A
C277        C386   1.477       .  S
Cd278       O285   2.451       .  S
Cd278       O284   2.428       .  S
Cd278       O283   2.467       .  S
Cd278       O279   2.466       .  S
Cd278       O282   2.479       .  S
Cd278       O280   2.419       .  S
C281        O285   1.265       .  A
C281        C353   1.483       .  S
O286        C289   1.263       .  A
O286       Cd291   2.471       .  S
C287        O296   1.264       .  A
C287        O292   1.266       .  A
C287        C689   1.477       .  S
O288        C294   1.268       .  A
O288       Cd291   2.500       .  S
C289        O297   1.267       .  A
C289       C1721   1.490       .  S
C290        O295   1.265       .  A
C290        O293   1.264       .  A
C290        C362   1.486       .  S
Cd291       O298   2.437       .  S
Cd291       O297   2.463       .  S
Cd291       O296   2.435       .  S
Cd291       O292   2.467       .  S
Cd291       O295   2.490       .  S
Cd291       O293   2.470       .  S
C294        O298   1.264       .  A
C294        C434   1.484       .  S
O299        C302   1.262       .  A
O299       Cd304   2.454       .  S
C300        O309   1.266       .  A
C300        O305   1.264       .  A
C300       C1217   1.487       .  S
O301        C307   1.265       .  A
O301       Cd304   2.475       .  S
C302        O310   1.266       .  A
C302        C650   1.488       .  S
C303        O308   1.266       .  A
C303        O306   1.264       .  A
C303        C338   1.488       .  S
Cd304       O311   2.481       .  S
Cd304       O310   2.472       .  S
Cd304       O309   2.469       .  S
Cd304       O305   2.483       .  S
Cd304       O308   2.497       .  S
Cd304       O306   2.466       .  S
C307        O311   1.266       .  A
C307        C578   1.487       .  S
O312        C315   1.266       .  A
O312       Cd317   2.452       .  S
C313        O322   1.267       .  A
C313        O318   1.267       .  A
C313       C1922   1.478       .  S
O314        C320   1.272       .  A
O314       Cd317   2.526       .  S
C315        O323   1.266       .  A
C315        C617   1.473       .  S
C316        O321   1.271       .  A
C316        O319   1.263       .  A
C316        C329   1.492       .  S
Cd317       O324   2.417       .  S
Cd317       O323   2.439       .  S
Cd317       O322   2.433       .  S
Cd317       O318   2.470       .  S
Cd317       O321   2.534       .  S
Cd317       O319   2.432       .  S
C320        O324   1.262       .  A
C320        C482   1.483       .  S
C325        C326   1.399       .  A
C325        C330   1.401       .  A
C325        H335   1.083       .  S
C326        C331   1.487       .  S
C326        C327   1.415       .  A
C327        C328   1.407       .  A
C327        S332   1.805       .  S
C328        C329   1.407       .  A
C328        H333   1.083       .  S
C329        C330   1.419       .  A
C330        S334   1.810       .  S
C331        C336   1.410       .  A
C331        C340   1.401       .  A
S332        H348   1.405       .  S
S334        H345   1.407       .  S
C336        C337   1.409       .  A
C336        S341   1.805       .  S
C337        C338   1.407       .  A
C337        H342   1.083       .  S
C338        C339   1.418       .  A
C339        C340   1.398       .  A
C339        S343   1.803       .  S
C340        H344   1.085       .  S
S341        H346   1.407       .  S
S343        H347   1.407       .  S
C349        C350   1.401       .  A
C349        C354   1.398       .  A
C349        H359   1.084       .  S
C350        C355   1.481       .  S
C350        C351   1.412       .  A
C351        C352   1.403       .  A
C351        S356   1.805       .  S
C352        C353   1.407       .  A
C352        H357   1.083       .  S
C353        C354   1.415       .  A
C354        S358   1.803       .  S
C355        C360   1.408       .  A
C355        C364   1.401       .  A
S356        H372   1.404       .  S
S358        H369   1.407       .  S
C360        C361   1.406       .  A
C360        S365   1.806       .  S
C361        C362   1.408       .  A
C361        H366   1.082       .  S
C362        C363   1.416       .  A
C363        C364   1.399       .  A
C363        S367   1.802       .  S
C364        H368   1.084       .  S
S365        H370   1.407       .  S
S367        H371   1.407       .  S
C373        C374   1.400       .  A
C373        C378   1.396       .  A
C373        H383   1.084       .  S
C374        C379   1.476       .  S
C374        C375   1.411       .  A
C375        C376   1.400       .  A
C375        S380   1.803       .  S
C376        C377   1.406       .  A
C376        H381   1.084       .  S
C377        C378   1.415       .  A
C378        S382   1.803       .  S
C379        C384   1.409       .  A
C379        C388   1.401       .  A
S380        H396   1.406       .  S
S382        H393   1.408       .  S
C384        C385   1.398       .  A
C384        S389   1.809       .  S
C385        C386   1.404       .  A
C385        H390   1.083       .  S
C386        C387   1.416       .  A
C387        C388   1.401       .  A
C387        S391   1.801       .  S
C388        H392   1.084       .  S
S389        H394   1.407       .  S
S391        H395   1.407       .  S
C397        C398   1.402       .  A
C397        C402   1.402       .  A
C397        H407   1.084       .  S
C398        C403   1.482       .  S
C398        C399   1.412       .  A
C399        C400   1.398       .  A
C399        S404   1.805       .  S
C400        C401   1.405       .  A
C400        H405   1.084       .  S
C401        C402   1.417       .  A
C402        S406   1.802       .  S
C403        C408   1.408       .  A
C403        C412   1.402       .  A
S404        H420   1.406       .  S
S406        H417   1.407       .  S
C408        C409   1.401   1_655  A
C408        S413   1.808       .  S
C409        C410   1.407       .  A
C409        H414   1.083       .  S
C410        C411   1.416       .  A
C411        C412   1.402   1_455  A
C411        S415   1.801       .  S
C412        H416   1.084       .  S
S413        H418   1.407       .  S
S415        H419   1.407       .  S
C421        C422   1.401       .  A
C421        C426   1.403       .  A
C421        H431   1.084       .  S
C422        C427   1.483       .  S
C422        C423   1.412       .  A
C423        C424   1.399       .  A
C423        S428   1.805       .  S
C424        C425   1.407       .  A
C424        H429   1.084       .  S
C425        C426   1.418       .  A
C426        S430   1.802       .  S
C427        C432   1.409       .  A
C427        C436   1.403       .  A
S428        H444   1.406       .  S
S430        H441   1.408       .  S
C432        C433   1.399       .  A
C432        S437   1.809       .  S
C433        C434   1.405       .  A
C433        H438   1.083       .  S
C434        C435   1.416       .  A
C435        C436   1.405       .  A
C435        S439   1.801       .  S
C436        H440   1.084       .  S
S437        H442   1.406       .  S
S439        H443   1.407       .  S
C445        C446   1.403       .  A
C445        C450   1.399   1_565  A
C445        H455   1.084       .  S
C446        C451   1.485       .  S
C446        C447   1.413       .  A
C447        C448   1.403   1_565  A
C447        S452   1.804       .  S
C448        C449   1.406       .  A
C448        H453   1.084       .  S
C449        C450   1.414       .  A
C450        S454   1.803       .  S
C451        C456   1.409       .  A
C451        C460   1.402       .  A
S452        H468   1.406       .  S
S454        H465   1.407       .  S
C456        C457   1.402       .  A
C456        S461   1.808       .  S
C457        C458   1.408       .  A
C457        H462   1.082       .  S
C458        C459   1.420       .  A
C459        C460   1.404       .  A
C459        S463   1.800       .  S
C460        H464   1.084       .  S
S461        H466   1.406       .  S
S463        H467   1.408       .  S
C469        C470   1.403       .  A
C469        C474   1.400       .  A
C469        H479   1.084       .  S
C470        C475   1.488       .  S
C470        C471   1.415       .  A
C471        C472   1.403       .  A
C471        S476   1.804       .  S
C472        C473   1.405       .  A
C472        H477   1.084       .  S
C473        C474   1.415       .  A
C474        S478   1.804       .  S
C475        C480   1.413       .  A
C475        C484   1.401       .  A
S476        H492   1.406       .  S
S478        H489   1.407       .  S
C480        C481   1.408       .  A
C480        S485   1.806       .  S
C481        C482   1.404       .  A
C481        H486   1.083       .  S
C482        C483   1.416       .  A
C483        C484   1.398       .  A
C483        S487   1.803       .  S
C484        H488   1.084       .  S
S485        H490   1.407       .  S
S487        H491   1.407       .  S
C493        C494   1.401       .  A
C493        C498   1.400       .  A
C493        H503   1.084       .  S
C494        C499   1.476       .  S
C494        C495   1.409       .  A
C495        C496   1.396       .  A
C495        S500   1.805       .  S
C496        C497   1.407       .  A
C496        H501   1.084       .  S
C497        C498   1.418       .  A
C498        S502   1.802       .  S
C499        C504   1.407       .  A
C499        C508   1.398       .  A
S500        H516   1.406       .  S
S502        H513   1.408       .  S
C504        C505   1.405   1_655  A
C504        S509   1.806       .  S
C505        C506   1.407       .  A
C505        H510   1.083       .  S
C506        C507   1.417       .  A
C507        C508   1.396   1_455  A
C507        S511   1.802       .  S
C508        H512   1.084       .  S
S509        H514   1.407   1_655  S
S511        H515   1.404       .  S
C517        C518   1.405       .  A
C517        C522   1.403       .  A
C517        H527   1.084       .  S
C518        C523   1.484       .  S
C518        C519   1.414       .  A
C519        C520   1.395       .  A
C519        S524   1.805       .  S
C520        C521   1.403       .  A
C520        H525   1.084       .  S
C521        C522   1.415       .  A
C522        S526   1.802       .  S
C523        C528   1.411       .  A
C523        C532   1.401       .  A
S524        H540   1.406       .  S
S526        H537   1.407       .  S
C528        C529   1.406       .  A
C528        S533   1.806       .  S
C529        C530   1.406       .  A
C529        H534   1.083       .  S
C530        C531   1.415       .  A
C531        C532   1.398       .  A
C531        S535   1.803       .  S
C532        H536   1.084       .  S
S533        H538   1.407       .  S
S535        H539   1.408       .  S
C541        C542   1.403       .  A
C541        C546   1.405       .  A
C541        H551   1.084       .  S
C542        C547   1.483       .  S
C542        C543   1.411       .  A
C543        C544   1.397       .  A
C543        S548   1.805       .  S
C544        C545   1.406       .  A
C544        H549   1.084       .  S
C545        C546   1.418       .  A
C546        S550   1.801       .  S
C547        C552   1.408       .  A
C547        C556   1.403       .  A
S548        H564   1.405       .  S
S550        H561   1.407       .  S
C552        C553   1.400       .  A
C552        S557   1.808       .  S
C553        C554   1.407       .  A
C553        H558   1.082       .  S
C554        C555   1.419       .  A
C555        C556   1.405       .  A
C555        S559   1.800       .  S
C556        H560   1.083       .  S
S557        H562   1.406       .  S
S559        H563   1.407       .  S
C565        C566   1.405       .  A
C565        C570   1.407       .  A
C565        H575   1.084       .  S
C566        C571   1.482       .  S
C566        C567   1.410       .  A
C567        C568   1.395       .  A
C567        S572   1.807       .  S
C568        C569   1.407       .  A
C568        H573   1.084       .  S
C569        C570   1.417       .  A
C570        S574   1.800       .  S
C571        C576   1.408       .  A
C571        C580   1.402       .  A
S572        H588   1.403       .  S
S574        H585   1.407       .  S
C576        C577   1.404       .  A
C576        S581   1.806       .  S
C577        C578   1.407       .  A
C577        H582   1.083       .  S
C578        C579   1.417       .  A
C579        C580   1.402       .  A
C579        S583   1.802       .  S
C580        H584   1.083       .  S
S581        H586   1.407       .  S
S583        H587   1.407       .  S
C589        C590   1.402       .  A
C589        C594   1.398       .  A
C589        H599   1.084       .  S
C590        C595   1.484       .  S
C590        C591   1.413       .  A
C591        C592   1.402       .  A
C591        S596   1.804       .  S
C592        C593   1.405       .  A
C592        H597   1.084       .  S
C593        C594   1.415       .  A
C594        S598   1.804       .  S
C595        C600   1.408       .  A
C595        C604   1.404       .  A
S596        H612   1.405       .  S
S598        H609   1.408       .  S
C600        C601   1.401   1_565  A
C600        S605   1.808       .  S
C601        C602   1.408       .  A
C601        H606   1.082       .  S
C602        C603   1.416       .  A
C603        C604   1.403   1_545  A
C603        S607   1.801       .  S
C604        H608   1.084       .  S
S605        H610   1.407   1_565  S
S607        H611   1.407       .  S
C613        C614   1.401       .  A
C613        C618   1.400       .  A
C613        H623   1.083       .  S
C614        C619   1.472       .  S
C614        C615   1.410       .  A
C615        C616   1.395       .  A
C615        S620   1.804       .  S
C616        C617   1.403       .  A
C616        H621   1.083       .  S
C617        C618   1.415       .  A
C618        S622   1.803       .  S
C619        C624   1.406       .  A
C619        C628   1.400       .  A
S620        H636   1.404       .  S
S622        H633   1.407       .  S
C624        C625   1.398       .  A
C624        S629   1.807       .  S
C625        C626   1.404       .  A
C625        H630   1.084       .  S
C626        C627   1.416       .  A
C627        C628   1.399       .  A
C627        S631   1.802       .  S
C628        H632   1.084       .  S
S629        H634   1.407       .  S
S631        H635   1.408       .  S
C637        C638   1.401       .  A
C637        C642   1.396       .  A
C637        H647   1.084       .  S
C638        C643   1.474       .  S
C638        C639   1.412       .  A
C639        C640   1.399       .  A
C639        S644   1.806       .  S
C640        C641   1.404       .  A
C640        H645   1.084       .  S
C641        C642   1.414       .  A
C642        S646   1.804       .  S
C643        C648   1.406       .  A
C643        C652   1.398       .  A
S644        H660   1.403       .  S
S646        H657   1.407       .  S
C648        C649   1.401       .  A
C648        S653   1.808       .  S
C649        C650   1.408       .  A
C649        H654   1.082       .  S
C650        C651   1.421       .  A
C651        C652   1.399       .  A
C651        S655   1.801       .  S
C652        H656   1.084       .  S
S653        H658   1.407       .  S
S655        H659   1.408       .  S
C661        C662   1.403       .  A
C661        C666   1.403       .  A
C661        H671   1.084       .  S
C662        C667   1.477       .  S
C662        C663   1.409   1_556  A
C663        C664   1.396       .  A
C663        S668   1.805       .  S
C664        C665   1.407   1_554  A
C664        H669   1.084       .  S
C665        C666   1.418       .  A
C666        S670   1.801       .  S
C667        C672   1.408       .  A
C667        C676   1.399       .  A
S668        H684   1.405       .  S
S670        H681   1.407       .  S
C672        C673   1.404       .  A
C672        S677   1.805   1_556  S
C673        C674   1.406       .  A
C673        H678   1.083   1_556  S
C674        C675   1.419       .  A
C675        C676   1.397       .  A
C675        S679   1.803       .  S
C676        H680   1.084       .  S
S677        H682   1.407       .  S
S679        H683   1.407       .  S
C685        C686   1.401       .  A
C685        C690   1.394       .  A
C685        H695   1.085       .  S
C686        C691   1.476       .  S
C686        C687   1.410       .  A
C687        C688   1.401       .  A
C687        S692   1.803       .  S
C688        C689   1.407       .  A
C688        H693   1.084       .  S
C689        C690   1.414       .  A
C690        S694   1.803       .  S
C691        C696   1.409       .  A
C691        C700   1.401       .  A
S692        H708   1.406       .  S
S694        H705   1.407       .  S
C696        C697   1.402       .  A
C696        S701   1.806       .  S
C697        C698   1.403       .  A
C697        H702   1.083       .  S
C698        C699   1.413       .  A
C699        C700   1.397       .  A
C699        S703   1.804       .  S
C700        H704   1.084       .  S
S701        H706   1.407       .  S
S703        H707   1.407       .  S
C709        C710   1.401       .  A
C709        C714   1.401       .  A
C709        H719   1.084       .  S
C710        C715   1.476       .  S
C710        C711   1.410       .  A
C711        C712   1.396       .  A
C711        S716   1.805       .  S
C712        C713   1.406       .  A
C712        H717   1.084       .  S
C713        C714   1.416       .  A
C714        S718   1.801       .  S
C715        C720   1.406       .  A
C715        C724   1.402       .  A
S716        H732   1.404       .  S
S718        H729   1.407       .  S
C720        C721   1.399       .  A
C720        S725   1.807       .  S
C721        C722   1.406       .  A
C721        H726   1.083       .  S
C722        C723   1.416       .  A
C723        C724   1.401       .  A
C723        S727   1.801       .  S
C724        H728   1.084       .  S
S725        H730   1.407       .  S
S727        H731   1.407       .  S
C733        C734   1.403       .  A
C733        C738   1.402       .  A
C733        H743   1.083   1_556  S
C734        C739   1.484       .  S
C734        C735   1.411       .  A
C735        C736   1.402       .  A
C735        S740   1.804       .  S
C736        C737   1.407       .  A
C736        H741   1.083       .  S
C737        C738   1.416       .  A
C738        S742   1.802   1_556  S
C739        C744   1.408       .  A
C739        C748   1.400       .  A
S740        H756   1.405       .  S
S742        H753   1.407       .  S
C744        C745   1.405       .  A
C744        S749   1.806       .  S
C745        C746   1.408       .  A
C745        H750   1.082       .  S
C746        C747   1.419   1_556  A
C747        C748   1.401   1_554  A
C747        S751   1.801       .  S
C748        H752   1.084   1_556  S
S749        H754   1.407       .  S
S751        H755   1.408       .  S
C757        C758   1.401       .  A
C757        C762   1.398       .  A
C757        H767   1.084       .  S
C758        C763   1.476       .  S
C758        C759   1.410       .  A
C759        C760   1.400       .  A
C759        S764   1.805       .  S
C760        C761   1.405       .  A
C760        H765   1.084       .  S
C761        C762   1.415       .  A
C762        S766   1.804       .  S
C763        C768   1.408       .  A
C763        C772   1.399       .  A
S764        H780   1.404       .  S
S766        H777   1.407       .  S
C768        C769   1.405       .  A
C768        S773   1.805       .  S
C769        C770   1.405       .  A
C769        H774   1.083       .  S
C770        C771   1.414       .  A
C771        C772   1.396       .  A
C771        S775   1.804       .  S
C772        H776   1.085       .  S
S773        H778   1.407       .  S
S775        H779   1.407       .  S
C781        C782   1.403   1_554  A
C781        C786   1.405       .  A
C781        H791   1.084       .  S
C782        C787   1.483       .  S
C782        C783   1.411       .  A
C783        C784   1.397       .  A
C783        S788   1.806       .  S
C784        C785   1.408       .  A
C784        H789   1.084       .  S
C785        C786   1.419   1_556  A
C786        S790   1.800       .  S
C787        C792   1.411       .  A
C787        C796   1.400   1_556  A
S788        H804   1.405       .  S
S790        H801   1.405       .  S
C792        C793   1.407       .  A
C792        S797   1.805       .  S
C793        C794   1.405       .  A
C793        H798   1.082       .  S
C794        C795   1.416   1_556  A
C795        C796   1.398       .  A
C795        S799   1.804       .  S
C796        H800   1.084       .  S
S797        H802   1.407       .  S
S799        H803   1.407       .  S
C805        C806   1.402       .  A
C805        C810   1.402       .  A
C805        H815   1.084       .  S
C806        C811   1.474       .  S
C806        C807   1.410       .  A
C807        C808   1.394       .  A
C807        S812   1.806       .  S
C808        C809   1.405       .  A
C808        H813   1.084       .  S
C809        C810   1.417       .  A
C810        S814   1.801       .  S
C811        C816   1.407       .  A
C811        C820   1.401       .  A
S812        H828   1.401       .  S
S814        H825   1.407       .  S
C816        C817   1.399       .  A
C816        S821   1.807       .  S
C817        C818   1.403       .  A
C817        H822   1.083       .  S
C818        C819   1.415       .  A
C819        C820   1.399       .  A
C819        S823   1.803       .  S
C820        H824   1.084       .  S
S821        H826   1.407       .  S
S823        H827   1.407       .  S
C829        C830   1.401   1_556  A
C829        C834   1.396       .  A
C829        H839   1.084       .  S
C830        C835   1.487       .  S
C830        C831   1.414       .  A
C831        C832   1.404       .  A
C831        S836   1.804       .  S
C832        C833   1.408   1_554  A
C832        H837   1.084       .  S
C833        C834   1.420       .  A
C834        S838   1.802       .  S
C835        C840   1.412       .  A
C835        C844   1.404   1_554  A
S836        H852   1.406       .  S
S838        H849   1.408   1_556  S
C840        C841   1.401   1_655  A
C840        S845   1.808       .  S
C841        C842   1.404       .  A
C841        H846   1.083       .  S
C842        C843   1.414   1_554  A
C843        C844   1.402   1_455  A
C843        S847   1.802       .  S
C844        H848   1.084       .  S
S845        H850   1.407       .  S
S847        H851   1.407       .  S
C853        C854   1.400       .  A
C853        C858   1.401       .  A
C853        H863   1.083       .  S
C854        C859   1.480       .  S
C854        C855   1.410       .  A
C855        C856   1.399       .  A
C855        S860   1.804       .  S
C856        C857   1.407       .  A
C856        H861   1.084       .  S
C857        C858   1.418       .  A
C858        S862   1.809       .  S
C859        C864   1.410       .  A
C859        C868   1.402       .  A
S860        H876   1.406       .  S
S862        H873   1.407       .  S
C864        C865   1.399       .  A
C864        S869   1.809       .  S
C865        C866   1.404       .  A
C865        H870   1.082       .  S
C866        C867   1.417       .  A
C867        C868   1.401       .  A
C867        S871   1.801       .  S
C868        H872   1.083       .  S
S869        H874   1.406       .  S
S871        H875   1.407       .  S
C877        C878   1.403       .  A
C877        C882   1.400       .  A
C877        H887   1.084       .  S
C878        C883   1.483       .  S
C878        C879   1.414   1_554  A
C879        C880   1.402   1_556  A
C879        S884   1.806       .  S
C880        C881   1.404       .  A
C880        H885   1.085   1_554  S
C881        C882   1.413       .  A
C882        S886   1.804       .  S
C883        C888   1.408       .  A
C883        C892   1.399       .  A
S884        H900   1.404       .  S
S886        H897   1.407       .  S
C888        C889   1.407       .  A
C888        S893   1.805       .  S
C889        C890   1.408       .  A
C889        H894   1.082       .  S
C890        C891   1.419       .  A
C891        C892   1.400       .  A
C891        S895   1.810       .  S
C892        H896   1.083       .  S
S893        H898   1.407   1_554  S
S895        H899   1.407       .  S
C901        C902   1.402       .  A
C901        C906   1.403       .  A
C901        H911   1.084       .  S
C902        C907   1.479       .  S
C902        C903   1.410       .  A
C903        C904   1.397       .  A
C903        S908   1.804       .  S
C904        C905   1.406       .  A
C904        H909   1.084       .  S
C905        C906   1.417       .  A
C906        S910   1.801       .  S
C907        C912   1.408       .  A
C907        C916   1.399       .  A
S908        H924   1.405       .  S
S910        H921   1.408       .  S
C912        C913   1.407       .  A
C912        S917   1.805       .  S
C913        C914   1.407       .  A
C913        H918   1.082       .  S
C914        C915   1.416       .  A
C915        C916   1.397       .  A
C915        S919   1.804       .  S
C916        H920   1.084       .  S
S917        H922   1.407       .  S
S919        H923   1.407       .  S
C925        C926   1.402       .  A
C925        C930   1.403   1_565  A
C925        H935   1.083       .  S
C926        C931   1.486       .  S
C926        C927   1.412   1_554  A
C927        C928   1.402   1_565  A
C927        S932   1.804       .  S
C928        C929   1.408   1_556  A
C928        H933   1.083       .  S
C929        C930   1.419       .  A
C930        S934   1.802       .  S
C931        C936   1.412   1_554  A
C931        C940   1.401       .  A
S932        H948   1.406       .  S
S934        H945   1.407       .  S
C936        C937   1.408       .  A
C936        S941   1.806       .  S
C937        C938   1.405   1_556  A
C937        H942   1.083       .  S
C938        C939   1.416       .  A
C939        C940   1.399       .  A
C939        S943   1.804       .  S
C940        H944   1.084       .  S
S941        H946   1.407       .  S
S943        H947   1.408       .  S
C949        C950   1.401       .  A
C949        C954   1.399       .  A
C949        H959   1.084       .  S
C950        C955   1.473       .  S
C950        C951   1.409       .  A
C951        C952   1.394       .  A
C951        S956   1.804       .  S
C952        C953   1.403       .  A
C952        H957   1.083       .  S
C953        C954   1.414       .  A
C954        S958   1.802       .  S
C955        C960   1.406       .  A
C955        C964   1.399       .  A
S956        H972   1.406       .  S
S958        H969   1.407       .  S
C960        C961   1.403       .  A
C960        S965   1.806       .  S
C961        C962   1.407       .  A
C961        H966   1.083       .  S
C962        C963   1.415       .  A
C963        C964   1.394       .  A
C963        S967   1.803       .  S
C964        H968   1.084       .  S
S965        H970   1.407       .  S
S967        H971   1.404       .  S
C973        C974   1.400   1_554  A
C973        C978   1.395       .  A
C973        H983   1.084       .  S
C974        C979   1.480       .  S
C974        C975   1.414       .  A
C975        C976   1.403       .  A
C975        S980   1.804       .  S
C976        C977   1.404       .  A
C976        H981   1.084       .  S
C977        C978   1.414   1_556  A
C978        S982   1.804       .  S
C979        C984   1.409       .  A
C979        C988   1.403   1_556  A
S980        H996   1.405       .  S
S982        H993   1.407       .  S
C984        C985   1.400       .  A
C984        S989   1.808       .  S
C985        C986   1.405       .  A
C985        H990   1.083       .  S
C986        C987   1.415   1_556  A
C987        C988   1.401       .  A
C987        S991   1.802       .  S
C988        H992   1.084       .  S
S989        H994   1.407       .  S
S991        H995   1.407       .  S
C997        C998   1.402       .  A
C997       C1002   1.401       .  A
C997       H1007   1.083       .  S
C998       C1003   1.474       .  S
C998        C999   1.409       .  A
C999       C1000   1.393       .  A
C999       S1004   1.806       .  S
C1000      C1001   1.406       .  A
C1000      H1005   1.083       .  S
C1001      C1002   1.417       .  A
C1002      S1006   1.801       .  S
C1003      C1008   1.408       .  A
C1003      C1012   1.401       .  A
S1004      H1020   1.405       .  S
S1006      H1017   1.407       .  S
C1008      C1009   1.397       .  A
C1008      S1013   1.808       .  S
C1009      C1010   1.404       .  A
C1009      H1014   1.083       .  S
C1010      C1011   1.415       .  A
C1011      C1012   1.400       .  A
C1011      S1015   1.802       .  S
C1012      H1016   1.084       .  S
S1013      H1018   1.407       .  S
S1015      H1019   1.407       .  S
C1021      C1022   1.402       .  A
C1021      C1026   1.406       .  A
C1021      H1031   1.083   1_556  S
C1022      C1027   1.479       .  S
C1022      C1023   1.411       .  A
C1023      C1024   1.397       .  A
C1023      S1028   1.806       .  S
C1024      C1025   1.406       .  A
C1024      H1029   1.083       .  S
C1025      C1026   1.416       .  A
C1026      S1030   1.807   1_556  S
C1027      C1032   1.407   1_556  A
C1027      C1036   1.403       .  A
S1028      H1044   1.405       .  S
S1030      H1041   1.407       .  S
C1032      C1033   1.400   1_654  A
C1032      S1037   1.807       .  S
C1033      C1034   1.407       .  A
C1033      H1038   1.083   1_556  S
C1034      C1035   1.415       .  A
C1035      C1036   1.403   1_455  A
C1035      S1039   1.801       .  S
C1036      H1040   1.084       .  S
S1037      H1042   1.407       .  S
S1039      H1043   1.407       .  S
C1045      C1046   1.404       .  A
C1045      C1050   1.405       .  A
C1045      H1055   1.083       .  S
C1046      C1051   1.481       .  S
C1046      C1047   1.411       .  A
C1047      C1048   1.394       .  A
C1047      S1052   1.805       .  S
C1048      C1049   1.404       .  A
C1048      H1053   1.084       .  S
C1049      C1050   1.417       .  A
C1050      S1054   1.801       .  S
C1051      C1056   1.409   1_556  A
C1051      C1060   1.401       .  A
S1052      H1068   1.406       .  S
S1054      H1065   1.407       .  S
C1056      C1057   1.406       .  A
C1056      S1061   1.805       .  S
C1057      C1058   1.407   1_554  A
C1057      H1062   1.082       .  S
C1058      C1059   1.415       .  A
C1059      C1060   1.397       .  A
C1059      S1063   1.804       .  S
C1060      H1064   1.084       .  S
S1061      H1066   1.407       .  S
S1063      H1067   1.408       .  S
C1069      C1070   1.401       .  A
C1069      C1074   1.395       .  A
C1069      H1079   1.085       .  S
C1070      C1075   1.480       .  S
C1070      C1071   1.413       .  A
C1071      C1072   1.404       .  A
C1071      S1076   1.803       .  S
C1072      C1073   1.406       .  A
C1072      H1077   1.084       .  S
C1073      C1074   1.413       .  A
C1074      S1078   1.804       .  S
C1075      C1080   1.408       .  A
C1075      C1084   1.402       .  A
S1076      H1092   1.406       .  S
S1078      H1089   1.407       .  S
C1080      C1081   1.403       .  A
C1080      S1085   1.806       .  S
C1081      C1082   1.405       .  A
C1081      H1086   1.083       .  S
C1082      C1083   1.415       .  A
C1083      C1084   1.400       .  A
C1083      S1087   1.803       .  S
C1084      H1088   1.084       .  S
S1085      H1090   1.407       .  S
S1087      H1091   1.407       .  S
C1093      C1094   1.402   1_556  A
C1093      C1098   1.403   1_556  A
C1093      H1103   1.083       .  S
C1094      C1099   1.476       .  S
C1094      C1095   1.410       .  A
C1095      C1096   1.394       .  A
C1095      S1100   1.806       .  S
C1096      C1097   1.405       .  A
C1096      H1101   1.084       .  S
C1097      C1098   1.417       .  A
C1098      S1102   1.801       .  S
C1099      C1104   1.408   1_554  A
C1099      C1108   1.399       .  A
S1100      H1116   1.404   1_554  S
S1102      H1113   1.407       .  S
C1104      C1105   1.405       .  A
C1104      S1109   1.805       .  S
C1105      C1106   1.407   1_556  A
C1105      H1110   1.082       .  S
C1106      C1107   1.415       .  A
C1107      C1108   1.397       .  A
C1107      S1111   1.803       .  S
C1108      H1112   1.084       .  S
S1109      H1114   1.407       .  S
S1111      H1115   1.407       .  S
C1117      C1118   1.401       .  A
C1117      C1122   1.400       .  A
C1117      H1127   1.085       .  S
C1118      C1123   1.477       .  S
C1118      C1119   1.411       .  A
C1119      C1120   1.397       .  A
C1119      S1124   1.805       .  S
C1120      C1121   1.404       .  A
C1120      H1125   1.084       .  S
C1121      C1122   1.415       .  A
C1122      S1126   1.802       .  S
C1123      C1128   1.408       .  A
C1123      C1132   1.400       .  A
S1124      H1140   1.406       .  S
S1126      H1137   1.408       .  S
C1128      C1129   1.403       .  A
C1128      S1133   1.806       .  S
C1129      C1130   1.406       .  A
C1129      H1134   1.084       .  S
C1130      C1131   1.414       .  A
C1131      C1132   1.401       .  A
C1131      S1135   1.808       .  S
C1132      H1136   1.085       .  S
S1133      H1138   1.407       .  S
S1135      H1139   1.407       .  S
C1141      C1142   1.401       .  A
C1141      C1146   1.399       .  A
C1141      H1151   1.084       .  S
C1142      C1147   1.483       .  S
C1142      C1143   1.413   1_556  A
C1143      C1144   1.403       .  A
C1143      S1148   1.803       .  S
C1144      C1145   1.405   1_554  A
C1144      H1149   1.084       .  S
C1145      C1146   1.414       .  A
C1146      S1150   1.804       .  S
C1147      C1152   1.409       .  A
C1147      C1156   1.405       .  A
S1148      H1164   1.406       .  S
S1150      H1161   1.407       .  S
C1152      C1153   1.399       .  A
C1152      S1157   1.808   1_556  S
C1153      C1154   1.404       .  A
C1153      H1158   1.083       .  S
C1154      C1155   1.413       .  A
C1155      C1156   1.405       .  A
C1155      S1159   1.802       .  S
C1156      H1160   1.084       .  S
S1157      H1162   1.407       .  S
S1159      H1163   1.406       .  S
C1165      C1166   1.402       .  A
C1165      C1170   1.402       .  A
C1165      H1175   1.084       .  S
C1166      C1171   1.478       .  S
C1166      C1167   1.410       .  A
C1167      C1168   1.396       .  A
C1167      S1172   1.804   1_556  S
C1168      C1169   1.405       .  A
C1168      H1173   1.085   1_556  S
C1169      C1170   1.417       .  A
C1170      S1174   1.802       .  S
C1171      C1176   1.407   1_565  A
C1171      C1180   1.402   1_566  A
S1172      H1188   1.406       .  S
S1174      H1185   1.407       .  S
C1176      C1177   1.400       .  A
C1176      S1181   1.808   1_545  S
C1177      C1178   1.406       .  A
C1177      H1182   1.082       .  S
C1178      C1179   1.414   1_556  A
C1179      C1180   1.402       .  A
C1179      S1183   1.801       .  S
C1180      H1184   1.084   1_545  S
S1181      H1186   1.407   1_565  S
S1183      H1187   1.407       .  S
C1189      C1190   1.398       .  A
C1189      C1194   1.409       .  A
C1189      H1199   1.083       .  S
C1190      C1195   1.481       .  S
C1190      C1191   1.400       .  A
C1191      C1192   1.392       .  A
C1191      S1196   1.806       .  S
C1192      C1193   1.424       .  A
C1192      H1197   1.077       .  S
C1193      C1194   1.435       .  A
C1194      S1198   1.809       .  S
C1195      C1200   1.410       .  A
C1195      C1204   1.399       .  A
S1196      H1212   1.407       .  S
S1198      H1209   1.406       .  S
C1200      C1201   1.407       .  A
C1200      S1205   1.805       .  S
C1201      C1202   1.406       .  A
C1201      H1206   1.082       .  S
C1202      C1203   1.415       .  A
C1203      C1204   1.394       .  A
C1203      S1207   1.804       .  S
C1204      H1208   1.084       .  S
S1205      H1210   1.407       .  S
S1207      H1211   1.405       .  S
C1213      C1214   1.400       .  A
C1213      C1218   1.401       .  A
C1213      H1223   1.083       .  S
C1214      C1219   1.479       .  S
C1214      C1215   1.411       .  A
C1215      C1216   1.399       .  A
C1215      S1220   1.806       .  S
C1216      C1217   1.406       .  A
C1216      H1221   1.083       .  S
C1217      C1218   1.419       .  A
C1218      S1222   1.801       .  S
C1219      C1224   1.401       .  A
C1219      C1228   1.392       .  A
S1220      H1236   1.405       .  S
S1222      H1233   1.408       .  S
C1224      C1225   1.405       .  A
C1224      S1229   1.805       .  S
C1225      C1226   1.422       .  A
C1225      H1230   1.077       .  S
C1226      C1227   1.437       .  A
C1227      C1228   1.399       .  A
C1227      S1231   1.808       .  S
C1228      H1232   1.083       .  S
S1229      H1234   1.407       .  S
S1231      H1235   1.407       .  S
C1237      C1238   1.397       .  A
C1237      C1242   1.405       .  A
C1237      H1247   1.082       .  S
C1238      C1243   1.481       .  S
C1238      C1239   1.401       .  A
C1239      C1240   1.394       .  A
C1239      S1244   1.805       .  S
C1240      C1241   1.422       .  A
C1240      H1245   1.077       .  S
C1241      C1242   1.437       .  A
C1242      S1246   1.809       .  S
C1243      C1248   1.400       .  A
C1243      C1252   1.396       .  A
S1244      H1260   1.406       .  S
S1246      H1257   1.407       .  S
C1248      C1249   1.399       .  A
C1248      S1253   1.809       .  S
C1249      C1250   1.422       .  A
C1249      H1254   1.073       .  S
C1250      C1251   1.440       .  A
C1251      C1252   1.401       .  A
C1251      S1255   1.809       .  S
C1252      H1256   1.084       .  S
S1253      H1258   1.407       .  S
S1255      H1259   1.396       .  S
C1261      C1262   1.393       .  A
C1261      C1266   1.404       .  A
C1261      H1271   1.085       .  S
C1262      C1267   1.478       .  S
C1262      C1263   1.401       .  A
C1263      C1264   1.392       .  A
C1263      S1268   1.805       .  S
C1264      C1265   1.425       .  A
C1264      H1269   1.083       .  S
C1265      C1266   1.448       .  A
C1266      S1270   1.808       .  S
C1267      C1272   1.408       .  A
C1267      C1276   1.399       .  A
S1268      H1284   1.405       .  S
S1270      H1281   1.396       .  S
C1272      C1273   1.404       .  A
C1272      S1277   1.807       .  S
C1273      C1274   1.406       .  A
C1273      H1278   1.083       .  S
C1274      C1275   1.417       .  A
C1275      C1276   1.398       .  A
C1275      S1279   1.802       .  S
C1276      H1280   1.084       .  S
S1277      H1282   1.407       .  S
S1279      H1283   1.407       .  S
C1285      C1286   1.401       .  A
C1285      C1290   1.398       .  A
C1285      H1295   1.085       .  S
C1286      C1291   1.483       .  S
C1286      C1287   1.413       .  A
C1287      C1288   1.402       .  A
C1287      S1292   1.804       .  S
C1288      C1289   1.405       .  A
C1288      H1293   1.084       .  S
C1289      C1290   1.417       .  A
C1290      S1294   1.802       .  S
C1291      C1296   1.402       .  A
C1291      C1300   1.392       .  A
S1292      H1308   1.406       .  S
S1294      H1305   1.408       .  S
C1296      C1297   1.402       .  A
C1296      S1301   1.808       .  S
C1297      C1298   1.426       .  A
C1297      H1302   1.074       .  S
C1298      C1299   1.439       .  A
C1299      C1300   1.401       .  A
C1299      S1303   1.807       .  S
C1300      H1304   1.083       .  S
S1301      H1306   1.407       .  S
S1303      H1307   1.406       .  S
C1309      C1310   1.396       .  A
C1309      C1314   1.400       .  A
C1309      H1319   1.085       .  S
C1310      C1315   1.487       .  S
C1310      C1311   1.408       .  A
C1311      C1312   1.401       .  A
C1311      S1316   1.804       .  S
C1312      C1313   1.420       .  A
C1312      H1317   1.080       .  S
C1313      C1314   1.441       .  A
C1314      S1318   1.809       .  S
C1315      C1320   1.403       .  A
C1315      C1324   1.396       .  A
S1316      H1332   1.406       .  S
S1318      H1329   1.399       .  S
C1320      C1321   1.402       .  A
C1320      S1325   1.810       .  S
C1321      C1322   1.424       .  A
C1321      H1326   1.073       .  S
C1322      C1323   1.440       .  A
C1323      C1324   1.403       .  A
C1323      S1327   1.807       .  S
C1324      H1328   1.084       .  S
S1325      H1330   1.406       .  S
S1327      H1331   1.397       .  S
C1333      C1334   1.400       .  A
C1333      C1338   1.397       .  A
C1333      H1343   1.084       .  S
C1334      C1339   1.475       .  S
C1334      C1335   1.410       .  A
C1335      C1336   1.399       .  A
C1335      S1340   1.805       .  S
C1336      C1337   1.405       .  A
C1336      H1341   1.084       .  S
C1337      C1338   1.417       .  A
C1338      S1342   1.802       .  S
C1339      C1344   1.398       .  A
C1339      C1348   1.391       .  A
S1340      H1356   1.405       .  S
S1342      H1353   1.408       .  S
C1344      C1345   1.397       .  A
C1344      S1349   1.807       .  S
C1345      C1346   1.426       .  A
C1345      H1350   1.081       .  S
C1346      C1347   1.445       .  A
C1347      C1348   1.400       .  A
C1347      S1351   1.798       .  S
C1348      H1352   1.085       .  S
S1349      H1354   1.407       .  S
S1351      H1355   1.397       .  S
C1357      C1358   1.393       .  A
C1357      C1362   1.403       .  A
C1357      H1367   1.083       .  S
C1358      C1363   1.479       .  S
C1358      C1359   1.402       .  A
C1359      C1360   1.398       .  A
C1359      S1364   1.805       .  S
C1360      C1361   1.426       .  A
C1360      H1365   1.074       .  S
C1361      C1362   1.438       .  A
C1362      S1366   1.805       .  S
C1363      C1368   1.409       .  A
C1363      C1372   1.400       .  A
S1364      H1380   1.406       .  S
S1366      H1377   1.407       .  S
C1368      C1369   1.405       .  A
C1368      S1373   1.806       .  S
C1369      C1370   1.406       .  A
C1369      H1374   1.083       .  S
C1370      C1371   1.416       .  A
C1371      C1372   1.398       .  A
C1371      S1375   1.804       .  S
C1372      H1376   1.084       .  S
S1373      H1378   1.407       .  S
S1375      H1379   1.408       .  S
C1381      C1382   1.401       .  A
C1381      C1386   1.399       .  A
C1381      H1391   1.084       .  S
C1382      C1387   1.476       .  S
C1382      C1383   1.412       .  A
C1383      C1384   1.399       .  A
C1383      S1388   1.806       .  S
C1384      C1385   1.405       .  A
C1384      H1389   1.084       .  S
C1385      C1386   1.415       .  A
C1386      S1390   1.803       .  S
C1387      C1392   1.399       .  A
C1387      C1396   1.392       .  A
S1388      H1404   1.405       .  S
S1390      H1401   1.407       .  S
C1392      C1393   1.402       .  A
C1392      S1397   1.807       .  S
C1393      C1394   1.424       .  A
C1393      H1398   1.075       .  S
C1394      C1395   1.441       .  A
C1395      C1396   1.400       .  A
C1395      S1399   1.815       .  S
C1396      H1400   1.083       .  S
S1397      H1402   1.407       .  S
S1399      H1403   1.406       .  S
C1405      C1406   1.392       .  A
C1405      C1410   1.397       .  A
C1405      H1415   1.085       .  S
C1406      C1411   1.476       .  S
C1406      C1407   1.403       .  A
C1407      C1408   1.396       .  A
C1407      S1412   1.806       .  S
C1408      C1409   1.424       .  A
C1408      H1413   1.076       .  S
C1409      C1410   1.446       .  A
C1410      S1414   1.814       .  S
C1411      C1416   1.407       .  A
C1411      C1420   1.400       .  A
S1412      H1428   1.405       .  S
S1414      H1425   1.389       .  S
C1416      C1417   1.403       .  A
C1416      S1421   1.806       .  S
C1417      C1418   1.408       .  A
C1417      H1422   1.082       .  S
C1418      C1419   1.416       .  A
C1419      C1420   1.395       .  A
C1419      S1423   1.803       .  S
C1420      H1424   1.084       .  S
S1421      H1426   1.407       .  S
S1423      H1427   1.408       .  S
C1429      C1430   1.397       .  A
C1429      C1434   1.402       .  A
C1429      H1439   1.084       .  S
C1430      C1435   1.488       .  S
C1430      C1431   1.404       .  A
C1431      C1432   1.394       .  A
C1431      S1436   1.799       .  S
C1432      C1433   1.422       .  A
C1432      H1437   1.077       .  S
C1433      C1434   1.439       .  A
C1434      S1438   1.811       .  S
C1435      C1440   1.405       .  A
C1435      C1444   1.396       .  A
S1436      H1452   1.405       .  S
S1438      H1449   1.392       .  S
C1440      C1441   1.405       .  A
C1440      S1445   1.807       .  S
C1441      C1442   1.422       .  A
C1441      H1446   1.076       .  S
C1442      C1443   1.440       .  A
C1443      C1444   1.401       .  A
C1443      S1447   1.805       .  S
C1444      H1448   1.085       .  S
S1445      H1450   1.407       .  S
S1447      H1451   1.402       .  S
C1453      C1454   1.392       .  A
C1453      C1458   1.405       .  A
C1453      H1463   1.084       .  S
C1454      C1459   1.489       .  S
C1454      C1455   1.405       .  A
C1455      C1456   1.401       .  A
C1455      S1460   1.805       .  S
C1456      C1457   1.424       .  A
C1456      H1461   1.084       .  S
C1457      C1458   1.449       .  A
C1458      S1462   1.810       .  S
C1459      C1464   1.402       .  A
C1459      C1468   1.397       .  A
S1460      H1476   1.406       .  S
S1462      H1473   1.408       .  S
C1464      C1465   1.400       .  A
C1464      S1469   1.809       .  S
C1465      C1466   1.423       .  A
C1465      H1470   1.071       .  S
C1466      C1467   1.442       .  A
C1467      C1468   1.404       .  A
C1467      S1471   1.809       .  S
C1468      H1472   1.084       .  S
S1469      H1474   1.407       .  S
S1471      H1475   1.395       .  S
C1477      C1478   1.397       .  A
C1477      C1482   1.407       .  A
C1477      H1487   1.084       .  S
C1478      C1483   1.478       .  S
C1478      C1479   1.401       .  A
C1479      C1480   1.391       .  A
C1479      S1484   1.806       .  S
C1480      C1481   1.423       .  A
C1480      H1485   1.073       .  S
C1481      C1482   1.444       .  A
C1482      S1486   1.813       .  S
C1483      C1488   1.410       .  A
C1483      C1492   1.398       .  A
S1484      H1500   1.404       .  S
S1486      H1497   1.395       .  S
C1488      C1489   1.409       .  A
C1488      S1493   1.805       .  S
C1489      C1490   1.406       .  A
C1489      H1494   1.083       .  S
C1490      C1491   1.414       .  A
C1491      C1492   1.394       .  A
C1491      S1495   1.805       .  S
C1492      H1496   1.085       .  S
S1493      H1498   1.407       .  S
S1495      H1499   1.407       .  S
C1501      C1502   1.399       .  A
C1501      C1506   1.402       .  A
C1501      H1511   1.084       .  S
C1502      C1507   1.482       .  S
C1502      C1503   1.411       .  A
C1503      C1504   1.401       .  A
C1503      S1508   1.805       .  S
C1504      C1505   1.408       .  A
C1504      H1509   1.083       .  S
C1505      C1506   1.422       .  A
C1506      S1510   1.800       .  S
C1507      C1512   1.401       .  A
C1507      C1516   1.393       .  A
S1508      H1524   1.405       .  S
S1510      H1521   1.408       .  S
C1512      C1513   1.406       .  A
C1512      S1517   1.805       .  S
C1513      C1514   1.424       .  A
C1513      H1518   1.077       .  S
C1514      C1515   1.438       .  A
C1515      C1516   1.401       .  A
C1515      S1519   1.808       .  S
C1516      H1520   1.083       .  S
S1517      H1522   1.407       .  S
S1519      H1523   1.407       .  S
C1525      C1526   1.404       .  A
C1525      C1530   1.402       .  A
C1525      H1535   1.081       .  S
C1526      C1531   1.511       .  S
C1526      C1527   1.416       .  A
C1527      C1528   1.406       .  A
C1527      S1532   1.806       .  S
C1528      C1529   1.420       .  A
C1528      H1533   1.080       .  S
C1529      C1530   1.433       .  A
C1530      S1534   1.812       .  S
C1531      C1536   1.410       .  A
C1531      C1540   1.403       .  A
S1532      H1548   1.406       .  S
S1534      H1545   1.407       .  S
C1536      C1537   1.408       .  A
C1536      S1541   1.810       .  S
C1537      C1538   1.424       .  A
C1537      H1542   1.064       .  S
C1538      C1539   1.441       .  A
C1539      C1540   1.401       .  A
C1539      S1543   1.810       .  S
C1540      H1544   1.082       .  S
S1541      H1546   1.407       .  S
S1543      H1547   1.397       .  S
C1549      C1550   1.403       .  A
C1549      C1554   1.406       .  A
C1549      H1559   1.081       .  S
C1550      C1555   1.509       .  S
C1550      C1551   1.416       .  A
C1551      C1552   1.403       .  A
C1551      S1556   1.806       .  S
C1552      C1553   1.417       .  A
C1552      H1557   1.079       .  S
C1553      C1554   1.435       .  A
C1554      S1558   1.812       .  S
C1555      C1560   1.408       .  A
C1555      C1564   1.403       .  A
S1556      H1572   1.403       .  S
S1558      H1569   1.406       .  S
C1560      C1561   1.406       .  A
C1560      S1565   1.810       .  S
C1561      C1562   1.422       .  A
C1561      H1566   1.068       .  S
C1562      C1563   1.438       .  A
C1563      C1564   1.403       .  A
C1563      S1567   1.808       .  S
C1564      H1568   1.083       .  S
S1565      H1570   1.407       .  S
S1567      H1571   1.395       .  S
C1573      C1574   1.401       .  A
C1573      C1578   1.398       .  A
C1573      H1583   1.084       .  S
C1574      C1579   1.476       .  S
C1574      C1575   1.411       .  A
C1575      C1576   1.401       .  A
C1575      S1580   1.804       .  S
C1576      C1577   1.406       .  A
C1576      H1581   1.083       .  S
C1577      C1578   1.414       .  A
C1578      S1582   1.803       .  S
C1579      C1584   1.398       .  A
C1579      C1588   1.393       .  A
S1580      H1596   1.405       .  S
S1582      H1593   1.407       .  S
C1584      C1585   1.400       .  A
C1584      S1589   1.807       .  S
C1585      C1586   1.423       .  A
C1585      H1590   1.074       .  S
C1586      C1587   1.442       .  A
C1587      C1588   1.399       .  A
C1587      S1591   1.812       .  S
C1588      H1592   1.084       .  S
S1589      H1594   1.407       .  S
S1591      H1595   1.392       .  S
C1597      C1598   1.403       .  A
C1597      C1602   1.402       .  A
C1597      H1607   1.084       .  S
C1598      C1603   1.477       .  S
C1598      C1599   1.412       .  A
C1599      C1600   1.395       .  A
C1599      S1604   1.806       .  S
C1600      C1601   1.402       .  A
C1600      H1605   1.084       .  S
C1601      C1602   1.414       .  A
C1602      S1606   1.803       .  S
C1603      C1608   1.398       .  A
C1603      C1612   1.395       .  A
S1604      H1620   1.406       .  S
S1606      H1617   1.407       .  S
C1608      C1609   1.395       .  A
C1608      S1613   1.809       .  S
C1609      C1610   1.425       .  A
C1609      H1614   1.075       .  S
C1610      C1611   1.439       .  A
C1611      C1612   1.408       .  A
C1611      S1615   1.811       .  S
C1612      H1616   1.083       .  S
S1613      H1618   1.407       .  S
S1615      H1619   1.406       .  S
C1621      C1622   1.396       .  A
C1621      C1626   1.405       .  A
C1621      H1631   1.083       .  S
C1622      C1627   1.479       .  S
C1622      C1623   1.403       .  A
C1623      C1624   1.394       .  A
C1623      S1628   1.805       .  S
C1624      C1625   1.422       .  A
C1624      H1629   1.080       .  S
C1625      C1626   1.434       .  A
C1626      S1630   1.804       .  S
C1627      C1632   1.409       .  A
C1627      C1636   1.401       .  A
S1628      H1644   1.406       .  S
S1630      H1641   1.407       .  S
C1632      C1633   1.404       .  A
C1632      S1637   1.806       .  S
C1633      C1634   1.406       .  A
C1633      H1638   1.085       .  S
C1634      C1635   1.414       .  A
C1635      C1636   1.396       .  A
C1635      S1639   1.804       .  S
C1636      H1640   1.086       .  S
S1637      H1642   1.407       .  S
S1639      H1643   1.407       .  S
C1645      C1646   1.403       .  A
C1645      C1650   1.405       .  A
C1645      H1655   1.085       .  S
C1646      C1651   1.480       .  S
C1646      C1647   1.413       .  A
C1647      C1648   1.399       .  A
C1647      S1652   1.808       .  S
C1648      C1649   1.406       .  A
C1648      H1653   1.085       .  S
C1649      C1650   1.415       .  A
C1650      S1654   1.807       .  S
C1651      C1656   1.402       .  A
C1651      C1660   1.396       .  A
S1652      H1668   1.401       .  S
S1654      H1665   1.407       .  S
C1656      C1657   1.396       .  A
C1656      S1661   1.805       .  S
C1657      C1658   1.424       .  A
C1657      H1662   1.082       .  S
C1658      C1659   1.441       .  A
C1659      C1660   1.408       .  A
C1659      S1663   1.808       .  S
C1660      H1664   1.082       .  S
S1661      H1666   1.404       .  S
S1663      H1667   1.407       .  S
C1669      C1670   1.395       .  A
C1669      C1674   1.402       .  A
C1669      H1679   1.084       .  S
C1670      C1675   1.486       .  S
C1670      C1671   1.404       .  A
C1671      C1672   1.400       .  A
C1671      S1676   1.805       .  S
C1672      C1673   1.427       .  A
C1672      H1677   1.078       .  S
C1673      C1674   1.435       .  A
C1674      S1678   1.804       .  S
C1675      C1680   1.402       .  A
C1675      C1684   1.396       .  A
S1676      H1692   1.406       .  S
S1678      H1689   1.407       .  S
C1680      C1681   1.399       .  A
C1680      S1685   1.810       .  S
C1681      C1682   1.424       .  A
C1681      H1686   1.074       .  S
C1682      C1683   1.436       .  A
C1683      C1684   1.407       .  A
C1683      S1687   1.806       .  S
C1684      H1688   1.084       .  S
S1685      H1690   1.407       .  S
S1687      H1691   1.406       .  S
C1693      C1694   1.387       .  A
C1693      C1698   1.395       .  A
C1693      H1703   1.085       .  S
C1694      C1699   1.474       .  S
C1694      C1695   1.401       .  A
C1695      C1696   1.399       .  A
C1695      S1700   1.803       .  S
C1696      C1697   1.427       .  A
C1696      H1701   1.082       .  S
C1697      C1698   1.448       .  A
C1698      S1702   1.803       .  S
C1699      C1704   1.408       .  A
C1699      C1708   1.399       .  A
S1700      H1716   1.405       .  S
S1702      H1713   1.391       .  S
C1704      C1705   1.403       .  A
C1704      S1709   1.806       .  S
C1705      C1706   1.404       .  A
C1705      H1710   1.082       .  S
C1706      C1707   1.415       .  A
C1707      C1708   1.396       .  A
C1707      S1711   1.804       .  S
C1708      H1712   1.084       .  S
S1709      H1714   1.407       .  S
S1711      H1715   1.406       .  S
C1717      C1718   1.401       .  A
C1717      C1722   1.403       .  A
C1717      H1727   1.084       .  S
C1718      C1723   1.485       .  S
C1718      C1719   1.412       .  A
C1719      C1720   1.399       .  A
C1719      S1724   1.807       .  S
C1720      C1721   1.405       .  A
C1720      H1725   1.082       .  S
C1721      C1722   1.420       .  A
C1722      S1726   1.799       .  S
C1723      C1728   1.402       .  A
C1723      C1732   1.397       .  A
S1724      H1740   1.406       .  S
S1726      H1737   1.408       .  S
C1728      C1729   1.400       .  A
C1728      S1733   1.808       .  S
C1729      C1730   1.420       .  A
C1729      H1734   1.073       .  S
C1730      C1731   1.438       .  A
C1731      C1732   1.408       .  A
C1731      S1735   1.812       .  S
C1732      H1736   1.081       .  S
S1733      H1738   1.407       .  S
S1735      H1739   1.407       .  S
C1741      C1742   1.402       .  A
C1741      C1746   1.400       .  A
C1741      H1751   1.084       .  S
C1742      C1747   1.483       .  S
C1742      C1743   1.412       .  A
C1743      C1744   1.400       .  A
C1743      S1748   1.804       .  S
C1744      C1745   1.405       .  A
C1744      H1749   1.084       .  S
C1745      C1746   1.417       .  A
C1746      S1750   1.803       .  S
C1747      C1752   1.400       .  A
C1747      C1756   1.391       .  A
S1748      H1764   1.406       .  S
S1750      H1761   1.408       .  S
C1752      C1753   1.404       .  A
C1752      S1757   1.807       .  S
C1753      C1754   1.425       .  A
C1753      H1758   1.073       .  S
C1754      C1755   1.445       .  A
C1755      C1756   1.400       .  A
C1755      S1759   1.818       .  S
C1756      H1760   1.083       .  S
S1757      H1762   1.407       .  S
S1759      H1763   1.406       .  S
C1765      C1766   1.401       .  A
C1765      C1770   1.403       .  A
C1765      H1775   1.084       .  S
C1766      C1771   1.483       .  S
C1766      C1767   1.410       .  A
C1767      C1768   1.398       .  A
C1767      S1772   1.804       .  S
C1768      C1769   1.404       .  A
C1768      H1773   1.082       .  S
C1769      C1770   1.418       .  A
C1770      S1774   1.801       .  S
C1771      C1776   1.402       .  A
C1771      C1780   1.392       .  A
S1772      H1788   1.406       .  S
S1774      H1785   1.408       .  S
C1776      C1777   1.404       .  A
C1776      S1781   1.806       .  S
C1777      C1778   1.423       .  A
C1777      H1782   1.077       .  S
C1778      C1779   1.445       .  A
C1779      C1780   1.400       .  A
C1779      S1783   1.813       .  S
C1780      H1784   1.084       .  S
S1781      H1786   1.407       .  S
S1783      H1787   1.391       .  S
C1789      C1790   1.400       .  A
C1789      C1794   1.412       .  A
C1789      H1799   1.082       .  S
C1790      C1795   1.490       .  S
C1790      C1791   1.404       .  A
C1791      C1792   1.395       .  A
C1791      S1796   1.805       .  S
C1792      C1793   1.423       .  A
C1792      H1797   1.080       .  S
C1793      C1794   1.441       .  A
C1794      S1798   1.812       .  S
C1795      C1800   1.403       .  A
C1795      C1804   1.398       .  A
S1796      H1812   1.406       .  S
S1798      H1809   1.407       .  S
C1800      C1801   1.398       .  A
C1800      S1805   1.808       .  S
C1801      C1802   1.425       .  A
C1801      H1806   1.073       .  S
C1802      C1803   1.442       .  A
C1803      C1804   1.406       .  A
C1803      S1807   1.815       .  S
C1804      H1808   1.083       .  S
S1805      H1810   1.406       .  S
S1807      H1811   1.393       .  S
C1813      C1814   1.404       .  A
C1813      C1818   1.405       .  A
C1813      H1823   1.079       .  S
C1814      C1819   1.511       .  S
C1814      C1815   1.413       .  A
C1815      C1816   1.394       .  A
C1815      S1820   1.808       .  S
C1816      C1817   1.417       .  A
C1816      H1821   1.059       .  S
C1817      C1818   1.442       .  A
C1818      S1822   1.806       .  S
C1819      C1824   1.417       .  A
C1819      C1828   1.403       .  A
S1820      H1836   1.407       .  S
S1822      H1833   1.401       .  S
C1824      C1825   1.406       .  A
C1824      S1829   1.810       .  S
C1825      C1826   1.417       .  A
C1825      H1830   1.069       .  S
C1826      C1827   1.440       .  A
C1827      C1828   1.396       .  A
C1827      S1831   1.810       .  S
C1828      H1832   1.081       .  S
S1829      H1834   1.407       .  S
S1831      H1835   1.402       .  S
C1837      C1838   1.397       .  A
C1837      C1842   1.411       .  A
C1837      H1847   1.083       .  S
C1838      C1843   1.475       .  S
C1838      C1839   1.397       .  A
C1839      C1840   1.386       .  A
C1839      S1844   1.808       .  S
C1840      C1841   1.424       .  A
C1840      H1845   1.072       .  S
C1841      C1842   1.447       .  A
C1842      S1846   1.820       .  S
C1843      C1848   1.408       .  A
C1843      C1852   1.400       .  A
S1844      H1860   1.404       .  S
S1846      H1857   1.406       .  S
C1848      C1849   1.405       .  A
C1848      S1853   1.805       .  S
C1849      C1850   1.404       .  A
C1849      H1854   1.084       .  S
C1850      C1851   1.412       .  A
C1851      C1852   1.398       .  A
C1851      S1855   1.810       .  S
C1852      H1856   1.084       .  S
S1853      H1858   1.407       .  S
S1855      H1859   1.407       .  S
C1861      C1862   1.393       .  A
C1861      C1866   1.400       .  A
C1861      H1871   1.083       .  S
C1862      C1867   1.482       .  S
C1862      C1863   1.404       .  A
C1863      C1864   1.401       .  A
C1863      S1868   1.803       .  S
C1864      C1865   1.427       .  A
C1864      H1869   1.083       .  S
C1865      C1866   1.442       .  A
C1866      S1870   1.808       .  S
C1867      C1872   1.409       .  A
C1867      C1876   1.401       .  A
S1868      H1884   1.405       .  S
S1870      H1881   1.408       .  S
C1872      C1873   1.401       .  A
C1872      S1877   1.809       .  S
C1873      C1874   1.407       .  A
C1873      H1878   1.082       .  S
C1874      C1875   1.419       .  A
C1875      C1876   1.402       .  A
C1875      S1879   1.801       .  S
C1876      H1880   1.084       .  S
S1877      H1882   1.407       .  S
S1879      H1883   1.408       .  S
C1885      C1886   1.392       .  A
C1885      C1890   1.399       .  A
C1885      H1895   1.084       .  S
C1886      C1891   1.476       .  S
C1886      C1887   1.401       .  A
C1887      C1888   1.398       .  A
C1887      S1892   1.804       .  S
C1888      C1889   1.424       .  A
C1888      H1893   1.079       .  S
C1889      C1890   1.438       .  A
C1890      S1894   1.809       .  S
C1891      C1896   1.407       .  A
C1891      C1900   1.401       .  A
S1892      H1908   1.406       .  S
S1894      H1905   1.407       .  S
C1896      C1897   1.401       .  A
C1896      S1901   1.807       .  S
C1897      C1898   1.405       .  A
C1897      H1902   1.084       .  S
C1898      C1899   1.413       .  A
C1899      C1900   1.398       .  A
C1899      S1903   1.803       .  S
C1900      H1904   1.086       .  S
S1901      H1906   1.407       .  S
S1903      H1907   1.407       .  S
C1909      C1910   1.396       .  A
C1909      C1914   1.406       .  A
C1909      H1919   1.084       .  S
C1910      C1915   1.480       .  S
C1910      C1911   1.404       .  A
C1911      C1912   1.394       .  A
C1911      S1916   1.806       .  S
C1912      C1913   1.419       .  A
C1912      H1917   1.078       .  S
C1913      C1914   1.436       .  A
C1914      S1918   1.810       .  S
C1915      C1920   1.408       .  A
C1915      C1924   1.404       .  A
S1916      H1932   1.406       .  S
S1918      H1929   1.406       .  S
C1920      C1921   1.398       .  A
C1920      S1925   1.808       .  S
C1921      C1922   1.404       .  A
C1921      H1926   1.079       .  S
C1922      C1923   1.415       .  A
C1923      C1924   1.404       .  A
C1923      S1927   1.802       .  S
C1924      H1928   1.082       .  S
S1925      H1930   1.407       .  S
S1927      H1931   1.407       .  S
C1933      C1934   1.397       .  A
C1933      C1938   1.403       .  A
C1933      H1943   1.083       .  S
C1934      C1939   1.487       .  S
C1934      C1935   1.407       .  A
C1935      C1936   1.396       .  A
C1935      S1940   1.805       .  S
C1936      C1937   1.417       .  A
C1936      H1941   1.079       .  S
C1937      C1938   1.437       .  A
C1938      S1942   1.811       .  S
C1939      C1944   1.405       .  A
C1939      C1948   1.396       .  A
S1940      H1956   1.407       .  S
S1942      H1953   1.406       .  S
C1944      C1945   1.400       .  A
C1944      S1949   1.810       .  S
C1945      C1946   1.422       .  A
C1945      H1950   1.072       .  S
C1946      C1947   1.436       .  A
C1947      C1948   1.403       .  A
C1947      S1951   1.812       .  S
C1948      H1952   1.081       .  S
S1949      H1954   1.407       .  S
S1951      H1955   1.406       .  S
C1957      C1958   1.400       .  A
C1957      C1962   1.410       .  A
C1957      H1967   1.082       .  S
C1958      C1963   1.497       .  S
C1958      C1959   1.404       .  A
C1959      C1960   1.395       .  A
C1959      S1964   1.808       .  S
C1960      C1961   1.422       .  A
C1960      H1965   1.066       .  S
C1961      C1962   1.446       .  A
C1962      S1966   1.820       .  S
C1963      C1968   1.405       .  A
C1963      C1972   1.396       .  A
S1964      H1980   1.406       .  S
S1966      H1977   1.406       .  S
C1968      C1969   1.403       .  A
C1968      S1973   1.810       .  S
C1969      C1970   1.424       .  A
C1969      H1974   1.049       .  S
C1970      C1971   1.439       .  A
C1971      C1972   1.406       .  A
C1971      S1975   1.801       .  S
C1972      H1976   1.082       .  S
S1973      H1978   1.407       .  S
S1975      H1979   1.407       .  S
C1981      C1982   1.397       .  A
C1981      C1986   1.397       .  A
C1981      H1991   1.085       .  S
C1982      C1987   1.498       .  S
C1982      C1983   1.412       .  A
C1983      C1984   1.402       .  A
C1983      S1988   1.802       .  S
C1984      C1985   1.418       .  A
C1984      H1989   1.085       .  S
C1985      C1986   1.447       .  A
C1986      S1990   1.818       .  S
C1987      C1992   1.410       .  A
C1987      C1996   1.401       .  A
S1988      H2004   1.407       .  S
S1990      H2001   1.393       .  S
C1992      C1993   1.397       .  A
C1992      S1997   1.815       .  S
C1993      C1994   1.418       .  A
C1993      H1998   1.075       .  S
C1994      C1995   1.434       .  A
C1995      C1996   1.408       .  A
C1995      S1999   1.810       .  S
C1996      H2000   1.079       .  S
S1997      H2002   1.406       .  S
S1999      H2003   1.407       .  S
C2005      C2006   1.392       .  A
C2005      C2010   1.404       .  A
C2005      H2015   1.084       .  S
C2006      C2011   1.479       .  S
C2006      C2007   1.402       .  A
C2007      C2008   1.397       .  A
C2007      S2012   1.806       .  S
C2008      C2009   1.425       .  A
C2008      H2013   1.076       .  S
C2009      C2010   1.444       .  A
C2010      S2014   1.815       .  S
C2011      C2016   1.407       .  A
C2011      C2020   1.401       .  A
S2012      H2028   1.406       .  S
S2014      H2025   1.406       .  S
C2016      C2017   1.402       .  A
C2016      S2021   1.806       .  S
C2017      C2018   1.407       .  A
C2017      H2022   1.081       .  S
C2018      C2019   1.417       .  A
C2019      C2020   1.399       .  A
C2019      S2023   1.802       .  S
C2020      H2024   1.084       .  S
S2021      H2026   1.407       .  S
S2023      H2027   1.408       .  S
C2029      C2030   1.392       .  A
C2029      C2034   1.394       .  A
C2029      H2039   1.086       .  S
C2030      C2035   1.471       .  S
C2030      C2031   1.405       .  A
C2031      C2032   1.400       .  A
C2031      S2036   1.805       .  S
C2032      C2033   1.421       .  A
C2032      H2037   1.080       .  S
C2033      C2034   1.437       .  A
C2034      S2038   1.814       .  S
C2035      C2040   1.406       .  A
C2035      C2044   1.400       .  A
S2036      H2052   1.403       .  S
S2038      H2049   1.406       .  S
C2040      C2041   1.401       .  A
C2040      S2045   1.806       .  S
C2041      C2042   1.405       .  A
C2041      H2046   1.082       .  S
C2042      C2043   1.414       .  A
C2043      C2044   1.397       .  A
C2043      S2047   1.803       .  S
C2044      H2048   1.084       .  S
S2045      H2050   1.407       .  S
S2047      H2051   1.407       .  S
