geometry optimzed in LAMMPS
_audit_creation_date              2020-12-01 
_audit_creation_method            'lammps2cif' 
_symmetry_space_group_name_H-M    'P1' 
_symmetry_Int_Tables_number       1 
_symmetry_cell_setting            triclinic 
loop_ 
_symmetry_equiv_pos_as_xyz 
  x,y,z 
_cell_length_a                    50.50271193 
_cell_length_b                    48.633350303273744 
_cell_length_c                    30.77486460759829 
_cell_angle_alpha                 92.579793180399 
_cell_angle_beta                  90.47850174792914 
_cell_angle_gamma                 91.19621853392158 
loop_ 
_atom_site_label 
_atom_site_type_symbol 
_atom_site_fract_x 
_atom_site_fract_y 
_atom_site_fract_z 
_atom_site_charge 
C1          C  0.13993611  0.99956901  0.05696342     0.87200
C2          C  0.12270772  0.02460958  0.05149432    -0.53100
C3          C  0.10980635  0.02486218  0.51258787     0.10100
C4          C  0.11562966  0.49982195  0.48131837     0.21000
C5          C  0.12092134  0.47458367  0.04693930    -0.53800
C6          C  0.10796798  0.47447046  0.50729110     0.10200
C7          C  0.15832767  0.99865944  0.01727765    -0.53300
C8          C  0.14607939  0.99878988  0.47760865     0.10800
H9          H  0.11984617  0.04022743  0.07731339     0.15300
H10         H  0.10599000  0.50023887  0.44921113     0.01000
H11         H  0.11815502  0.45788605  0.06847818     0.15600
H12         H  0.17971634  0.99774768  0.52050803     0.15400
O13         O  0.22300062  0.47368192  0.30835931    -0.73700
O14         O  0.27409605  0.47375240  0.21688585    -0.73800
O15         O  0.27674109  0.47357674  0.30551776    -0.73800
O16         O  0.22037848  0.47432587  0.21979183    -0.73900
O17         O  0.22155972  0.02018900  0.22489434    -0.73800
O18         O  0.27816055  0.01932413  0.30755858    -0.73800
O19         O  0.27478210  0.01926575  0.21968054    -0.73800
O20         O  0.22453238  0.01953898  0.31298987    -0.73800
Ni21       Ni  0.24850080  0.47217737  0.26253537     1.25400
Ni22       Ni  0.24979716  0.02115435  0.26648193     1.25400
C23         C  0.21554087  0.49651448  0.32617015     0.88400
C24         C  0.28268626  0.49646883  0.20221071     0.88400
C25         C  0.28663365  0.49656665  0.32097934     0.88400
C26         C  0.21214195  0.49760900  0.20765325     0.88600
C27         C  0.35537409  0.49637738  0.04996573     0.87200
C28         C  0.37569845  0.47297708  0.04908353    -0.53100
C29         C  0.39142939  0.47196152  0.51319998     0.10100
C30         C  0.38652726  0.49519931  0.48200601     0.21000
C31         C  0.37335326  0.02228812  0.04601451    -0.53800
C32         C  0.39016903  0.02195087  0.51113721     0.10200
C33         C  0.34078515  0.49333654  0.00640409    -0.53300
C34         C  0.35657378  0.49334013  0.47063224     0.10800
H35         H  0.37812858  0.45887110  0.07510354     0.15300
H36         H  0.39966825  0.49351555  0.45345423     0.01000
H37         H  0.37323038  0.03921664  0.06958512     0.15600
H38         H  0.31928873  0.49306574  0.50398601     0.15400
C39         C  0.50178397  0.13719561  0.44139741     0.87200
C40         C  0.02505140  0.11715558  0.44390311    -0.53100
C41         C  0.02533164  0.10170123  0.97994959     0.10100
C42         C  0.50189568  0.10764424  0.01055992     0.21000
C43         C  0.47669838  0.11936506  0.44659380    -0.53800
C44         C  0.47661140  0.10308523  0.98189340     0.10200
C45         C  0.50459011  0.15410446  0.48471576    -0.53300
C46         C  0.50362111  0.13892108  0.02070534     0.10800
H47         H  0.04103572  0.11623541  0.42085556     0.15700
H48         H  0.50275293  0.09564023  0.04015174     0.01000
H49         H  0.46010044  0.12012821  0.42404056     0.15600
H50         H  0.50653809  0.17639107  0.98713851     0.15400
O51         O  0.02015867  0.27532757  0.19359111    -0.73700
O52         O  0.02349979  0.22089072  0.28019367    -0.73800
O53         O  0.02117216  0.21973025  0.19183830    -0.73800
O54         O  0.02295720  0.27657837  0.28143957    -0.73900
O55         O  0.47886288  0.27551920  0.28420899    -0.73800
O56         O  0.47735108  0.21745290  0.19475852    -0.73800
O57         O  0.47936813  0.21999456  0.28277614    -0.73800
O58         O  0.47603160  0.27315746  0.19605761    -0.73800
Ni59       Ni  0.02351492  0.24817615  0.23662979     1.25400
Ni60       Ni  0.47633566  0.24648251  0.23947690     1.25400
C61         C  0.49742322  0.28295444  0.18043722     0.88400
C62         C  0.50178978  0.21196189  0.29632353     0.88400
C63         C  0.49913265  0.20895998  0.17822096     0.88400
C64         C  0.50137046  0.28513353  0.29822063     0.88600
C65         C  0.99754717  0.35742741  0.03670192     0.87200
C66         C  0.02184716  0.37706111  0.03357830    -0.53100
C67         C  0.02286556  0.39209540  0.49681371     0.10100
C68         C  0.99845932  0.38609595  0.46663471     0.21000
C69         C  0.47376200  0.37555792  0.03204686    -0.53800
C70         C  0.47389854  0.39080398  0.49626011     0.10200
C71         C  0.99884032  0.34007622  0.99383480    -0.53300
C72         C  0.99928789  0.35463661  0.45693940     0.10800
H73         H  0.03758771  0.37835291  0.05756137     0.15300
H74         H  0.99842293  0.39756832  0.43658702     0.01000
H75         H  0.45844550  0.37728396  0.05657668     0.15600
H76         H  0.99996961  0.31780417  0.49279402     0.15400
C77         C  0.50281368  0.30532857  0.33611005    -0.04700
C78         C  0.48615528  0.32831290  0.33891129    -0.01800
C79         C  0.48597396  0.34569040  0.37716227     0.03200
C80         C  0.00266128  0.34029326  0.41292736    -0.04700
C81         C  0.02134982  0.31898938  0.40777153    -0.01800
C82         C  0.02092261  0.30124853  0.37032075     0.03200
C83         C  0.46959761  0.33442398  0.30197622     0.37900
C84         C  0.04130441  0.31491017  0.44092810     0.37900
C85         C  0.03838649  0.27783329  0.36830249     0.36300
C86         C  0.46838007  0.36883787  0.37926637     0.36300
N87         N  0.05228093  0.25919027  0.36681835    -0.38500
N88         N  0.45456208  0.38753502  0.37987748    -0.38500
N89         N  0.05720303  0.31080531  0.46697708    -0.38000
N90         N  0.45656201  0.33934857  0.27232795    -0.38000
C91         C  0.99502921  0.34006625  0.07732383    -0.04700
C92         C  0.47818049  0.31619728  0.07595250    -0.01800
C93         C  0.47934329  0.29740054  0.10928568     0.03200
C94         C  0.49562265  0.30318100  0.14611790    -0.04700
C95         C  0.50848714  0.32911320  0.15138836    -0.01800
C96         C  0.00717647  0.34803533  0.11798209     0.03200
C97         C  0.45850457  0.31138626  0.04154438     0.37900
C98         C  0.52170238  0.33695129  0.19231142     0.37900
C99         C  0.01483467  0.37649272  0.12832736     0.36300
C100        C  0.46400594  0.27184153  0.10498767     0.36300
N101        N  0.02071172  0.39922368  0.13703142    -0.38500
N102        N  0.45157204  0.25162690  0.10110907    -0.38500
N103        N  0.53209044  0.34319937  0.22504904    -0.38000
N104        N  0.44281179  0.30746500  0.51421795    -0.38000
C105        C  0.50013609  0.15516463  0.40099518    -0.04700
C106        C  0.48502482  0.17960624  0.40275401    -0.01800
C107        C  0.48700295  0.19865003  0.36974056     0.03200
C108        C  0.50202198  0.19263976  0.33226490    -0.04700
C109        C  0.01435090  0.16699656  0.32747700    -0.01800
C110        C  0.01228002  0.14778051  0.36054553     0.03200
C111        C  0.46588935  0.18487281  0.43684093     0.37900
C112        C  0.02813632  0.15976175  0.28753414     0.37900
C113        C  0.01913108  0.11951924  0.34959310     0.36300
C114        C  0.47389291  0.22492906  0.37498106     0.36300
N115        N  0.02448541  0.09700635  0.34022327    -0.38500
N116        N  0.46351483  0.24586116  0.37926277    -0.38500
N117        N  0.03922848  0.15383644  0.25584812    -0.38000
N118        N  0.45033045  0.18982980  0.96325698    -0.38000
C119        C  0.49917482  0.18712041  0.14175735    -0.04700
C120        C  0.02304215  0.17365153  0.12968754    -0.01800
C121        C  0.02395088  0.15623435  0.09174593     0.03200
C122        C  0.50149876  0.15252695  0.06476031    -0.04700
C123        C  0.47728019  0.16395454  0.07804491    -0.01800
C124        C  0.47585266  0.18041422  0.11690240     0.03200
C125        C  0.04700846  0.17735291  0.15584000     0.37900
C126        C  0.45347806  0.15808294  0.05217421     0.37900
C127        C  0.45012428  0.19008086  0.13063461     0.36300
C128        C  0.04823529  0.14239853  0.08019578     0.36300
N129        N  0.42940999  0.19737538  0.14137030    -0.38500
N130        N  0.06772624  0.13131765  0.07192955    -0.38500
N131        N  0.43433352  0.15298274  0.03222897    -0.38000
N132        N  0.06631505  0.18026506  0.17621398    -0.38000
C133        C  0.41283555  0.45144178  0.50666968    -0.04700
C134        C  0.43897147  0.45798281  0.52070758    -0.01800
C135        C  0.45919249  0.43859699  0.51513313     0.03200
C136        C  0.45388028  0.41279236  0.49354315    -0.04700
C137        C  0.42746946  0.40575716  0.98115488    -0.01800
C138        C  0.40699527  0.42485146  0.98829492     0.03200
C139        C  0.44489513  0.48352251  0.54501719     0.37900
C140        C  0.42103275  0.37809242  0.96419158     0.37900
C141        C  0.37969407  0.41649865  0.97936167     0.36300
C142        C  0.48470662  0.44414766  0.53623241     0.36300
N143        N  0.35793370  0.40968941  0.97225348    -0.38500
N144        N  0.00475358  0.44872868  0.55385093    -0.38500
N145        N  0.41588070  0.35597815  0.95086167    -0.38000
N146        N  0.45088138  0.00314779  0.56561085    -0.38000
C147        C  0.41131150  0.04413537  0.50428603    -0.04700
C148        C  0.42485937  0.05824657  0.03990809    -0.01800
C149        C  0.44509773  0.07812730  0.03278835     0.03200
C150        C  0.45420319  0.08275215  0.99020478    -0.04700
C151        C  0.44171680  0.06749734  0.45499289    -0.01800
C152        C  0.41922095  0.05046920  0.46170089     0.03200
C153        C  0.41938607  0.05196132  0.08472742     0.37900
C154        C  0.45288052  0.06754417  0.41163528     0.37900
C155        C  0.40369747  0.04088991  0.42392988     0.36300
C156        C  0.45656970  0.09305419  0.07048320     0.36300
N157        N  0.39172801  0.03367811  0.39311196    -0.38500
N158        N  0.46521927  0.10389876  0.10187284    -0.38500
N159        N  0.46177110  0.06738907  0.37708018    -0.38000
N160        N  0.41549149  0.04725945  0.12069814    -0.38000
C161        C  0.34418588  0.49702749  0.42686816    -0.04700
C162        C  0.34539002  0.47672940  0.39277762    -0.01800
C163        C  0.32718176  0.47684498  0.35737634     0.03200
C164        C  0.30759822  0.49731604  0.35594229    -0.04700
C165        C  0.30840539  0.01912952  0.38818726    -0.01800
C166        C  0.32739093  0.01952171  0.42196209     0.03200
C167        C  0.36594950  0.45646526  0.39289542     0.37900
C168        C  0.28875741  0.04052597  0.38880453     0.37900
C169        C  0.33030192  0.04369165  0.45112532     0.36300
C170        C  0.32898015  0.45612682  0.32219669     0.36300
N171        N  0.33297054  0.06335520  0.47341436    -0.38500
N172        N  0.33048848  0.43963599  0.29406491    -0.38500
N173        N  0.27304774  0.05753003  0.38963516    -0.38000
N174        N  0.38266091  0.44055115  0.39121956    -0.38000
C175        C  0.33553210  0.49662855  0.08869960    -0.04700
C176        C  0.32540727  0.02146153  0.10769387    -0.01800
C177        C  0.31058593  0.02144670  0.14650211     0.03200
C178        C  0.30131218  0.49638202  0.16363979    -0.04700
C179        C  0.30824515  0.47140099  0.14096193    -0.01800
C180        C  0.32443317  0.47163497  0.10350398     0.03200
C181        C  0.32666536  0.04699013  0.08509482     0.37900
C182        C  0.29882525  0.44491057  0.15532931     0.37900
C183        C  0.32749322  0.44596901  0.07824192     0.36300
C184        C  0.30511343  0.04787738  0.16813984     0.36300
N185        N  0.32954689  0.42533997  0.05844095    -0.38500
N186        N  0.30101721  0.06907052  0.18511447    -0.38500
N187        N  0.29150621  0.42365931  0.16646595    -0.38000
N188        N  0.32721435  0.06776143  0.06817123    -0.38000
C189        C  0.04617503  0.41128533  0.48799886    -0.04700
C190        C  0.04288282  0.43734970  0.46984789    -0.01800
C191        C  0.06387673  0.45723550  0.47138068     0.03200
C192        C  0.08824788  0.45181917  0.49257957    -0.04700
C193        C  0.09297850  0.42420722  0.00257974    -0.01800
C194        C  0.07229372  0.40417101  0.00013205     0.03200
C195        C  0.01797280  0.44469019  0.45011999     0.37900
C196        C  0.11944840  0.41589812  0.01438961     0.37900
C197        C  0.07849306  0.37609805  0.00988894     0.36300
C198        C  0.05966734  0.48285330  0.45028250     0.36300
N199        N  0.08406650  0.35407257  0.01872237    -0.38500
N200        N  0.05550240  0.00265067  0.43205965    -0.38500
N201        N  0.14035606  0.40898962  0.02427682    -0.38000
N202        N  0.49855515  0.45130673  0.43367546    -0.38000
C203        C  0.04734112  0.08237937  0.98980093    -0.04700
C204        C  0.07437060  0.09029694  0.98425111    -0.01800
C205        C  0.09474832  0.07141017  0.99106931     0.03200
C206        C  0.08858212  0.04501906  0.50553139    -0.04700
C207        C  0.06226978  0.03851222  0.51670723    -0.01800
C208        C  0.04158961  0.05607520  0.50593261     0.03200
C209        C  0.08162123  0.11820728  0.97359860     0.37900
C210        C  0.05651484  0.01419015  0.54095176     0.37900
C211        C  0.01456611  0.04588942  0.50938740     0.36300
C212        C  0.12223609  0.07949415  0.98494670     0.36300
N213        N  0.49332155  0.03683348  0.51219608    -0.38500
N214        N  0.14416767  0.08588303  0.97999032    -0.38500
N215        N  0.05191264  0.49505389  0.56084079    -0.38000
N216        N  0.08749460  0.14048828  0.96532152    -0.38000
C217        C  0.16164313  0.49618497  0.43584378    -0.04700
C218        C  0.15699090  0.01335607  0.40057334    -0.01800
C219        C  0.17428260  0.01312827  0.36447919     0.03200
C220        C  0.19659483  0.49606022  0.36321586    -0.04700
C221        C  0.20056944  0.47801689  0.39725415    -0.01800
C222        C  0.18274123  0.47732199  0.43229487     0.03200
C223        C  0.13441247  0.03121675  0.40039012     0.37900
C224        C  0.22382254  0.46092879  0.39750292     0.37900
C225        C  0.18589354  0.45634021  0.46393565     0.36300
C226        C  0.16868785  0.03003049  0.32794937     0.36300
N227        N  0.18868763  0.43960958  0.48904935    -0.38500
N228        N  0.16418412  0.04339313  0.29870280    -0.38500
N229        N  0.24244425  0.44746388  0.39791881    -0.38000
N230        N  0.11621001  0.04519561  0.39855116    -0.38000
C231        C  0.15583856  0.00154594  0.10059010    -0.04700
C232        C  0.17833052  0.01966213  0.10437277    -0.01800
C233        C  0.19721503  0.01699237  0.13772179     0.03200
C234        C  0.19233066  0.49904895  0.17167359    -0.04700
C235        C  0.16781859  0.48462463  0.17248786    -0.01800
C236        C  0.14932204  0.48637057  0.13774760     0.03200
C237        C  0.18186794  0.04192009  0.07484333     0.37900
C238        C  0.16109195  0.46908936  0.21017540     0.37900
C239        C  0.12255865  0.47613538  0.14405884     0.36300
C240        C  0.22235983  0.03191390  0.13561099     0.36300
N241        N  0.10116554  0.46818639  0.14984869    -0.38500
N242        N  0.24244363  0.04364231  0.13344669    -0.38500
N243        N  0.15572571  0.45683246  0.24037128    -0.38000
N244        N  0.18467323  0.05978050  0.05158563    -0.38000
C245        C  0.13993650  0.99956904  0.55696356     0.87200
C246        C  0.12270816  0.02460973  0.55149458    -0.53100
C247        C  0.10980603  0.02486198  0.01258725     0.10100
C248        C  0.11562986  0.49982258  0.98131834     0.21000
C249        C  0.12092185  0.47458321  0.54693956    -0.53800
C250        C  0.10796794  0.47447097  0.00729100     0.10200
C251        C  0.15832872  0.99865941  0.51727841    -0.53300
C252        C  0.14607869  0.99878950  0.97760791     0.10800
H253        H  0.11984625  0.04022854  0.57731389     0.15300
H254        H  0.10598960  0.50024131  0.94921181     0.01000
H255        H  0.11815550  0.45788618  0.56847788     0.15600
H256        H  0.17971707  0.99774745  0.02050729     0.15400
O257        O  0.22300071  0.47368227  0.80835947    -0.73700
O258        O  0.27409621  0.47375213  0.71688597    -0.73800
O259        O  0.27674116  0.47357671  0.80551798    -0.73800
O260        O  0.22037857  0.47432570  0.71979180    -0.73900
O261        O  0.22155974  0.02018926  0.72489438    -0.73800
O262        O  0.27816044  0.01932399  0.80755848    -0.73800
O263        O  0.27478205  0.01926580  0.71968066    -0.73800
O264        O  0.22453241  0.01953917  0.81299000    -0.73800
Ni265      Ni  0.24850087  0.47217732  0.76253557     1.25400
Ni266      Ni  0.24979722  0.02115441  0.76648203     1.25400
C267        C  0.21554097  0.49651510  0.82617045     0.88400
C268        C  0.28268645  0.49646810  0.70221060     0.88400
C269        C  0.28663374  0.49656653  0.82097953     0.88400
C270        C  0.21214204  0.49760856  0.70765325     0.88600
C271        C  0.35537350  0.49637831  0.54996667     0.87200
C272        C  0.37569815  0.47297767  0.54908361    -0.53100
C273        C  0.39142969  0.47196078  0.01319908     0.10100
C274        C  0.38652694  0.49519929  0.98200638     0.21000
C275        C  0.37335298  0.02228752  0.54601415    -0.53800
C276        C  0.39016956  0.02195173  0.01113686     0.10200
C277        C  0.34078524  0.49333712  0.50640359    -0.53300
C278        C  0.35657356  0.49333962  0.97063157     0.10800
H279        H  0.37812646  0.45887231  0.57510422     0.15300
H280        H  0.39966791  0.49351484  0.95345219     0.01000
H281        H  0.37322965  0.03921568  0.56958551     0.15600
H282        H  0.31928898  0.49306553  0.00398506     0.15400
C283        C  0.50178446  0.13719528  0.94139779     0.87200
C284        C  0.02505155  0.11715545  0.94390313    -0.53100
C285        C  0.02533135  0.10170169  0.47994975     0.10100
C286        C  0.50189574  0.10764416  0.51055934     0.21000
C287        C  0.47669881  0.11936519  0.94659365    -0.53800
C288        C  0.47661079  0.10308521  0.48189242     0.10200
C289        C  0.50459047  0.15410435  0.98471485    -0.53300
C290        C  0.50362085  0.13892073  0.52070514     0.10800
H291        H  0.04103814  0.11623544  0.92085263     0.15700
H292        H  0.50275211  0.09564002  0.54015037     0.01000
H293        H  0.46010562  0.12012839  0.92404501     0.15600
H294        H  0.50653693  0.17639077  0.48714090     0.15400
O295        O  0.02015861  0.27532746  0.69359112    -0.73700
O296        O  0.02349969  0.22089062  0.78019369    -0.73800
O297        O  0.02117202  0.21973011  0.69183827    -0.73800
O298        O  0.02295735  0.27657833  0.78143961    -0.73900
O299        O  0.47886268  0.27551914  0.78420879    -0.73800
O300        O  0.47735109  0.21745284  0.69475841    -0.73800
O301        O  0.47936796  0.21999440  0.78277611    -0.73800
O302        O  0.47603170  0.27315731  0.69605747    -0.73800
Ni303      Ni  0.02351492  0.24817601  0.73662975     1.25400
Ni304      Ni  0.47633559  0.24648241  0.73947673     1.25400
C305        C  0.49742369  0.28295429  0.68043712     0.88400
C306        C  0.50178946  0.21196176  0.79632342     0.88400
C307        C  0.49913303  0.20895998  0.67822095     0.88400
C308        C  0.50137005  0.28513342  0.79822049     0.88600
C309        C  0.99754726  0.35742617  0.53670247     0.87200
C310        C  0.02184735  0.37706012  0.53357854    -0.53100
C311        C  0.02286536  0.39209645  0.99681268     0.10100
C312        C  0.99845918  0.38609614  0.96663476     0.21000
C313        C  0.47376175  0.37555826  0.53204893    -0.53800
C314        C  0.47389907  0.39080437  0.99625648     0.10200
C315        C  0.99884068  0.34007536  0.49383506    -0.53300
C316        C  0.99928758  0.35463815  0.95693857     0.10800
H317        H  0.03758781  0.37835116  0.55756300     0.15300
H318        H  0.99842255  0.39757001  0.93658348     0.01000
H319        H  0.45843957  0.37728350  0.55658915     0.15600
H320        H  0.99996927  0.31781084  0.99279292     0.15400
C321        C  0.50281353  0.30532839  0.83610967    -0.04700
C322        C  0.48615529  0.32831270  0.83891111    -0.01800
C323        C  0.48597362  0.34569024  0.87716150     0.03200
C324        C  0.00266139  0.34029357  0.91292721    -0.04700
C325        C  0.02134947  0.31898960  0.90777143    -0.01800
C326        C  0.02092258  0.30124863  0.87032097     0.03200
C327        C  0.46959728  0.33442407  0.80197514     0.37900
C328        C  0.04130423  0.31491034  0.94092833     0.37900
C329        C  0.03838689  0.27783298  0.86830250     0.36300
C330        C  0.46838000  0.36883735  0.87926601     0.36300
N331        N  0.05228103  0.25919056  0.86681822    -0.38500
N332        N  0.45456174  0.38753495  0.87987732    -0.38500
N333        N  0.05720287  0.31080541  0.96697698    -0.38000
N334        N  0.45656232  0.33934851  0.77232807    -0.38000
C335        C  0.99502921  0.34006605  0.57732419    -0.04700
C336        C  0.47818063  0.31619701  0.57595272    -0.01800
C337        C  0.47934363  0.29740059  0.60928578     0.03200
C338        C  0.49562269  0.30318070  0.64611776    -0.04700
C339        C  0.50848735  0.32911319  0.65138871    -0.01800
C340        C  0.00717638  0.34803513  0.61798226     0.03200
C341        C  0.45850491  0.31138622  0.54154449     0.37900
C342        C  0.52170240  0.33695117  0.69231167     0.37900
C343        C  0.01483459  0.37649277  0.62832784     0.36300
C344        C  0.46400568  0.27184087  0.60498741     0.36300
N345        N  0.02071166  0.39922364  0.63703180    -0.38500
N346        N  0.45157231  0.25162719  0.60110902    -0.38500
N347        N  0.53209034  0.34319927  0.72504928    -0.38000
N348        N  0.44281160  0.30746517  0.01421830    -0.38000
C349        C  0.50013621  0.15516462  0.90099517    -0.04700
C350        C  0.48502478  0.17960617  0.90275398    -0.01800
C351        C  0.48700287  0.19864981  0.86974048     0.03200
C352        C  0.50202177  0.19263966  0.83226494    -0.04700
C353        C  0.01435060  0.16699665  0.82747704    -0.01800
C354        C  0.01228005  0.14778018  0.86054528     0.03200
C355        C  0.46588928  0.18487281  0.93684101     0.37900
C356        C  0.02813633  0.15976156  0.78753339     0.37900
C357        C  0.01913072  0.11951999  0.84959320     0.36300
C358        C  0.47389237  0.22492952  0.87498099     0.36300
N359        N  0.02448527  0.09700590  0.84022313    -0.38500
N360        N  0.46351468  0.24586081  0.87926243    -0.38500
N361        N  0.03922818  0.15383631  0.75584845    -0.38000
N362        N  0.45033041  0.18982974  0.46325695    -0.38000
C363        C  0.49917473  0.18712029  0.64175712    -0.04700
C364        C  0.02304193  0.17365128  0.62968749    -0.01800
C365        C  0.02395077  0.15623418  0.59174606     0.03200
C366        C  0.50149859  0.15252655  0.56476073    -0.04700
C367        C  0.47728007  0.16395439  0.57804460    -0.01800
C368        C  0.47585271  0.18041422  0.61690244     0.03200
C369        C  0.04700886  0.17735264  0.65584080     0.37900
C370        C  0.45347844  0.15808306  0.55217436     0.37900
C371        C  0.45012426  0.19008089  0.63063438     0.36300
C372        C  0.04823544  0.14239796  0.58019577     0.36300
N373        N  0.42940993  0.19737549  0.64137004    -0.38500
N374        N  0.06772594  0.13131721  0.57192993    -0.38500
N375        N  0.43433333  0.15298275  0.53222862    -0.38000
N376        N  0.06631466  0.18026458  0.67621413    -0.38000
C377        C  0.41283588  0.45144185  0.00666930    -0.04700
C378        C  0.43897162  0.45798282  0.02070740    -0.01800
C379        C  0.45919260  0.43859706  0.01513296     0.03200
C380        C  0.45388040  0.41279263  0.99354185    -0.04700
C381        C  0.42746922  0.40575713  0.48115498    -0.01800
C382        C  0.40699546  0.42485163  0.48829487     0.03200
C383        C  0.44489538  0.48352303  0.04501715     0.37900
C384        C  0.42103278  0.37809207  0.46419141     0.37900
C385        C  0.37969314  0.41649834  0.47936117     0.36300
C386        C  0.48470675  0.44414768  0.03623226     0.36300
N387        N  0.35793431  0.40968942  0.47225360    -0.38500
N388        N  0.00475331  0.44872875  0.05385009    -0.38500
N389        N  0.41588093  0.35597819  0.45086166    -0.38000
N390        N  0.45088139  0.00314797  0.06561109    -0.38000
C391        C  0.41131173  0.04413565  0.00428583    -0.04700
C392        C  0.42485905  0.05824634  0.53990770    -0.01800
C393        C  0.44509760  0.07812720  0.53278840     0.03200
C394        C  0.45420310  0.08275206  0.49020480    -0.04700
C395        C  0.44171692  0.06749755  0.95499301    -0.01800
C396        C  0.41922121  0.05046931  0.96170125     0.03200
C397        C  0.41938571  0.05196116  0.58472763     0.37900
C398        C  0.45288038  0.06754442  0.91163632     0.37900
C399        C  0.40369749  0.04088983  0.92392948     0.36300
C400        C  0.45656927  0.09305381  0.57048208     0.36300
N401        N  0.39172822  0.03367808  0.89311206    -0.38500
N402        N  0.46521927  0.10389899  0.60187324    -0.38500
N403        N  0.46177124  0.06738918  0.87708015    -0.38000
N404        N  0.41549138  0.04725934  0.62069801    -0.38000
C405        C  0.34418590  0.49702759  0.92686825    -0.04700
C406        C  0.34539003  0.47672957  0.89277745    -0.01800
C407        C  0.32718192  0.47684510  0.85737648     0.03200
C408        C  0.30759823  0.49731603  0.85594237    -0.04700
C409        C  0.30840540  0.01912931  0.88818691    -0.01800
C410        C  0.32739102  0.01952190  0.92196239     0.03200
C411        C  0.36594973  0.45646530  0.89289552     0.37900
C412        C  0.28875741  0.04052604  0.88880448     0.37900
C413        C  0.33030191  0.04369077  0.95112412     0.36300
C414        C  0.32898037  0.45612673  0.82219638     0.36300
N415        N  0.33297077  0.06335575  0.97341464    -0.38500
N416        N  0.33048867  0.43963621  0.79406505    -0.38500
N417        N  0.27304783  0.05753005  0.88963521    -0.38000
N418        N  0.38266084  0.44055139  0.89121964    -0.38000
C419        C  0.33553209  0.49662835  0.58869921    -0.04700
C420        C  0.32540724  0.02146158  0.60769410    -0.01800
C421        C  0.31058596  0.02144649  0.64650225     0.03200
C422        C  0.30131213  0.49638203  0.66364005    -0.04700
C423        C  0.30824538  0.47140094  0.64096162    -0.01800
C424        C  0.32443309  0.47163522  0.60350427     0.03200
C425        C  0.32666542  0.04698957  0.58509552     0.37900
C426        C  0.29882525  0.44490992  0.65532973     0.37900
C427        C  0.32749329  0.44596863  0.57824155     0.36300
C428        C  0.30511352  0.04787784  0.66814056     0.36300
N429        N  0.32954695  0.42533994  0.55844122    -0.38500
N430        N  0.30101755  0.06907027  0.68511485    -0.38500
N431        N  0.29150660  0.42365964  0.66646603    -0.38000
N432        N  0.32721442  0.06776180  0.56817139    -0.38000
C433        C  0.04617509  0.41128521  0.98799825    -0.04700
C434        C  0.04288281  0.43735004  0.96984733    -0.01800
C435        C  0.06387676  0.45723531  0.97138060     0.03200
C436        C  0.08824787  0.45181948  0.99257907    -0.04700
C437        C  0.09297850  0.42420732  0.50257980    -0.01800
C438        C  0.07229385  0.40417049  0.50013253     0.03200
C439        C  0.01797269  0.44469029  0.95011945     0.37900
C440        C  0.11944853  0.41589802  0.51438975     0.37900
C441        C  0.07849287  0.37609899  0.50988880     0.36300
C442        C  0.05966736  0.48285363  0.95028189     0.36300
N443        N  0.08406672  0.35407200  0.51872253    -0.38500
N444        N  0.05550219  0.00265081  0.93205968    -0.38500
N445        N  0.14035611  0.40898964  0.52427674    -0.38000
N446        N  0.49855506  0.45130683  0.93367489    -0.38000
C447        C  0.04734129  0.08237947  0.48980078    -0.04700
C448        C  0.07437049  0.09029691  0.48425108    -0.01800
C449        C  0.09474833  0.07141020  0.49106937     0.03200
C450        C  0.08858201  0.04501892  0.00553127    -0.04700
C451        C  0.06226968  0.03851238  0.01670733    -0.01800
C452        C  0.04158998  0.05607502  0.00593272     0.03200
C453        C  0.08162122  0.11820755  0.47359862     0.37900
C454        C  0.05651470  0.01418951  0.04095260     0.37900
C455        C  0.01456526  0.04588892  0.00938760     0.36300
C456        C  0.12223651  0.07949438  0.48494688     0.36300
N457        N  0.49332143  0.03683349  0.01219617    -0.38500
N458        N  0.14416760  0.08588314  0.47999062    -0.38500
N459        N  0.05191266  0.49505399  0.06084038    -0.38000
N460        N  0.08749444  0.14048802  0.46532179    -0.38000
C461        C  0.16164330  0.49618510  0.93584416    -0.04700
C462        C  0.15699092  0.01335628  0.90057317    -0.01800
C463        C  0.17428273  0.01312832  0.86447937     0.03200
C464        C  0.19659481  0.49606043  0.86321609    -0.04700
C465        C  0.20056962  0.47801674  0.89725405    -0.01800
C466        C  0.18274115  0.47732191  0.93229530     0.03200
C467        C  0.13441253  0.03121684  0.90038998     0.37900
C468        C  0.22382187  0.46092921  0.89750291     0.37900
C469        C  0.18589353  0.45634069  0.96393519     0.36300
C470        C  0.16868793  0.03003088  0.82794925     0.36300
N471        N  0.18868777  0.43960937  0.98904991    -0.38500
N472        N  0.16418436  0.04339341  0.79870352    -0.38500
N473        N  0.24244463  0.44746347  0.89791875    -0.38000
N474        N  0.11620991  0.04519549  0.89855096    -0.38000
C475        C  0.15583885  0.00154599  0.60059048    -0.04700
C476        C  0.17833055  0.01966207  0.60437280    -0.01800
C477        C  0.19721533  0.01699243  0.63772195     0.03200
C478        C  0.19233065  0.49904869  0.67167352    -0.04700
C479        C  0.16781875  0.48462454  0.67248797    -0.01800
C480        C  0.14932206  0.48637038  0.63774764     0.03200
C481        C  0.18186817  0.04192013  0.57484323     0.37900
C482        C  0.16109208  0.46908923  0.71017541     0.37900
C483        C  0.12255906  0.47613541  0.64405905     0.36300
C484        C  0.22235978  0.03191380  0.63561095     0.36300
N485        N  0.10116557  0.46818612  0.64984880    -0.38500
N486        N  0.24244381  0.04364238  0.63344669    -0.38500
N487        N  0.15572582  0.45683225  0.74037130    -0.38000
N488        N  0.18467346  0.05978017  0.55158546    -0.38000
C489        C  0.13993535  0.49956969  0.05696326     0.87200
C490        C  0.12270730  0.52461034  0.05149446    -0.53100
C491        C  0.10980573  0.52486212  0.51258782     0.10100
C492        C  0.11563049  0.99982211  0.48131883     0.21000
C493        C  0.12092218  0.97458290  0.04694004    -0.53800
C494        C  0.10796877  0.97447062  0.50729149     0.10200
C495        C  0.15832761  0.49865969  0.01727797    -0.53300
C496        C  0.14607763  0.49878959  0.47760678     0.10800
H497        H  0.11984466  0.54023208  0.07731750     0.15300
H498        H  0.10599134  0.00024015  0.44921278     0.01000
H499        H  0.11815754  0.95788322  0.06848044     0.15600
H500        H  0.17971021  0.49774753  0.52050435     0.15400
O501        O  0.22300074  0.97368218  0.30835946    -0.73700
O502        O  0.27409609  0.97375244  0.21688582    -0.73800
O503        O  0.27674118  0.97357682  0.30551797    -0.73800
O504        O  0.22037849  0.97432574  0.21979189    -0.73900
O505        O  0.22155976  0.52018913  0.22489417    -0.73800
O506        O  0.27816043  0.51932406  0.30755846    -0.73800
O507        O  0.27478204  0.51926573  0.21968044    -0.73800
O508        O  0.22453232  0.51953873  0.31298966    -0.73800
Ni509      Ni  0.24850084  0.97217746  0.26253549     1.25400
Ni510      Ni  0.24979711  0.52115431  0.26648182     1.25400
C511        C  0.21554096  0.99651493  0.32617046     0.88400
C512        C  0.28268629  0.99646877  0.20221078     0.88400
C513        C  0.28663377  0.99656666  0.32097958     0.88400
C514        C  0.21214189  0.99760901  0.20765321     0.88600
C515        C  0.35537335  0.99637843  0.04996528     0.87200
C516        C  0.37569755  0.97297835  0.04908297    -0.53100
C517        C  0.39142866  0.97196080  0.51320050     0.10100
C518        C  0.38652686  0.99519956  0.48200628     0.21000
C519        C  0.37335370  0.52228722  0.04601395    -0.53800
C520        C  0.39016980  0.52195204  0.51113835     0.10200
C521        C  0.34078498  0.99333731  0.00640350    -0.53300
C522        C  0.35657262  0.99333946  0.47063164     0.10800
H523        H  0.37812628  0.95887518  0.07510075     0.15300
H524        H  0.39966640  0.99351453  0.45345313     0.01000
H525        H  0.37323083  0.53921750  0.06958420     0.15600
H526        H  0.31928159  0.99306578  0.50398244     0.15400
C527        C  0.50178335  0.63719545  0.44139718     0.87200
C528        C  0.02505187  0.61715597  0.44390227    -0.53100
C529        C  0.02533233  0.60170197  0.97994736     0.10100
C530        C  0.50189591  0.60764460  0.01055963     0.21000
C531        C  0.47669795  0.61936467  0.44659424    -0.53800
C532        C  0.47661139  0.60308567  0.98189394     0.10200
C533        C  0.50458985  0.65410439  0.48471503    -0.53300
C534        C  0.50362111  0.63892210  0.02070603     0.10800
H535        H  0.04103935  0.61623660  0.42085054     0.15700
H536        H  0.50275226  0.59564095  0.04015216     0.01000
H537        H  0.46010002  0.62012750  0.42404223     0.15600
H538        H  0.50653825  0.67639738  0.98714251     0.15400
O539        O  0.02015876  0.77532754  0.19359097    -0.73700
O540        O  0.02350001  0.72089075  0.28019349    -0.73800
O541        O  0.02117212  0.71973015  0.19183802    -0.73800
O542        O  0.02295733  0.77657839  0.28143941    -0.73900
O543        O  0.47886282  0.77551930  0.28420878    -0.73800
O544        O  0.47735131  0.71745295  0.19475827    -0.73800
O545        O  0.47936787  0.71999452  0.28277610    -0.73800
O546        O  0.47603165  0.77315742  0.19605736    -0.73800
Ni547      Ni  0.02351513  0.74817616  0.23662956     1.25400
Ni548      Ni  0.47633552  0.74648253  0.23947669     1.25400
C549        C  0.49742318  0.78295438  0.18043713     0.88400
C550        C  0.50178917  0.71196186  0.29632333     0.88400
C551        C  0.49913285  0.70896010  0.17822080     0.88400
C552        C  0.50137005  0.78513360  0.29822050     0.88600
C553        C  0.99754755  0.85742698  0.03670168     0.87200
C554        C  0.02184759  0.87706079  0.03357777    -0.53100
C555        C  0.02286514  0.89209558  0.49681328     0.10100
C556        C  0.99845939  0.88609598  0.46663432     0.21000
C557        C  0.47376253  0.87555798  0.03204771    -0.53800
C558        C  0.47389860  0.89080416  0.49625800     0.10200
C559        C  0.99884088  0.84007594  0.99383538    -0.53300
C560        C  0.99928752  0.85463702  0.45693945     0.10800
H561        H  0.03758786  0.87835286  0.05756143     0.15300
H562        H  0.99842364  0.89756867  0.43658422     0.01000
H563        H  0.45844687  0.87728316  0.05657749     0.15600
H564        H  0.99997024  0.81780443  0.49279526     0.15400
C565        C  0.50281372  0.80532844  0.33610998    -0.04700
C566        C  0.48615515  0.82831295  0.33891094    -0.01800
C567        C  0.48597382  0.84569025  0.37716199     0.03200
C568        C  0.00266127  0.84029344  0.41292740    -0.04700
C569        C  0.02134980  0.81898941  0.40777126    -0.01800
C570        C  0.02092269  0.80124878  0.37032075     0.03200
C571        C  0.46959774  0.83442400  0.30197625     0.37900
C572        C  0.04130450  0.81491032  0.44092819     0.37900
C573        C  0.03838715  0.77783289  0.36830216     0.36300
C574        C  0.46837990  0.86883776  0.37926594     0.36300
N575        N  0.05228103  0.75919080  0.36681803    -0.38500
N576        N  0.45456200  0.88753508  0.37987711    -0.38500
N577        N  0.05720306  0.81080547  0.46697671    -0.38000
N578        N  0.45656198  0.83934868  0.27232751    -0.38000
C579        C  0.99502937  0.84006635  0.07732391    -0.04700
C580        C  0.47818063  0.81619741  0.07595254    -0.01800
C581        C  0.47934345  0.79740083  0.10928563     0.03200
C582        C  0.49562270  0.80318091  0.14611785    -0.04700
C583        C  0.50848723  0.82911321  0.15138821    -0.01800
C584        C  0.00717631  0.84803521  0.11798184     0.03200
C585        C  0.45850496  0.81138668  0.04154471     0.37900
C586        C  0.52170258  0.83695125  0.19231174     0.37900
C587        C  0.01483453  0.87649313  0.12832733     0.36300
C588        C  0.46400554  0.77184116  0.10498739     0.36300
N589        N  0.02071130  0.89922364  0.13703124    -0.38500
N590        N  0.45157209  0.75162742  0.10110900    -0.38500
N591        N  0.53209044  0.84319918  0.22504869    -0.38000
N592        N  0.44281143  0.80746570  0.51421869    -0.38000
C593        C  0.50013568  0.65516448  0.40099481    -0.04700
C594        C  0.48502456  0.67960627  0.40275388    -0.01800
C595        C  0.48700279  0.69865002  0.36974038     0.03200
C596        C  0.50202177  0.69263978  0.33226490    -0.04700
C597        C  0.01435096  0.66699679  0.32747646    -0.01800
C598        C  0.01228020  0.64778027  0.36054498     0.03200
C599        C  0.46588911  0.68487276  0.43684056     0.37900
C600        C  0.02813622  0.65976193  0.28753457     0.37900
C601        C  0.01913102  0.61951975  0.34959267     0.36300
C602        C  0.47389250  0.72492928  0.37498091     0.36300
N603        N  0.02448571  0.59700595  0.34022285    -0.38500
N604        N  0.46351463  0.74586104  0.37926255    -0.38500
N605        N  0.03922865  0.65383644  0.25584789    -0.38000
N606        N  0.45033040  0.68982970  0.96325682    -0.38000
C607        C  0.49917511  0.68712048  0.14175728    -0.04700
C608        C  0.02304228  0.67365142  0.12968746    -0.01800
C609        C  0.02395083  0.65623415  0.09174552     0.03200
C610        C  0.50149871  0.65252699  0.06476059    -0.04700
C611        C  0.47728019  0.66395465  0.07804498    -0.01800
C612        C  0.47585264  0.68041434  0.11690239     0.03200
C613        C  0.04700859  0.67735278  0.15583993     0.37900
C614        C  0.45347815  0.65808304  0.05217405     0.37900
C615        C  0.45012456  0.69008099  0.13063424     0.36300
C616        C  0.04823495  0.64239842  0.08019582     0.36300
N617        N  0.42941002  0.69737566  0.14136986    -0.38500
N618        N  0.06772625  0.63131734  0.07192958    -0.38500
N619        N  0.43433356  0.65298275  0.03222864    -0.38000
N620        N  0.06631520  0.68026498  0.17621406    -0.38000
C621        C  0.41283540  0.95144185  0.50667033    -0.04700
C622        C  0.43897134  0.95798278  0.52070788    -0.01800
C623        C  0.45919260  0.93859712  0.51513328     0.03200
C624        C  0.45388023  0.91279259  0.49354246    -0.04700
C625        C  0.42746945  0.90575738  0.98115486    -0.01800
C626        C  0.40699549  0.92485172  0.98829492     0.03200
C627        C  0.44489522  0.98352286  0.54501784     0.37900
C628        C  0.42103280  0.87809201  0.96419078     0.37900
C629        C  0.37969320  0.91649850  0.97936110     0.36300
C630        C  0.48470621  0.94414756  0.53623220     0.36300
N631        N  0.35793435  0.90968963  0.97225336    -0.38500
N632        N  0.00475392  0.94872877  0.55385072    -0.38500
N633        N  0.41588101  0.85597863  0.95086108    -0.38000
N634        N  0.45088138  0.50314782  0.56561051    -0.38000
C635        C  0.41131157  0.54413532  0.50428492    -0.04700
C636        C  0.42485938  0.55824647  0.03990828    -0.01800
C637        C  0.44509766  0.57812722  0.03278806     0.03200
C638        C  0.45420347  0.58275213  0.99020511    -0.04700
C639        C  0.44171673  0.56749713  0.45499281    -0.01800
C640        C  0.41922127  0.55046939  0.46170139     0.03200
C641        C  0.41938619  0.55196132  0.08472656     0.37900
C642        C  0.45288063  0.56754395  0.41163493     0.37900
C643        C  0.40369720  0.54088956  0.42392908     0.36300
C644        C  0.45656969  0.59305437  0.07048360     0.36300
N645        N  0.39172823  0.53367800  0.39311213    -0.38500
N646        N  0.46521914  0.60389880  0.10187252    -0.38500
N647        N  0.46177117  0.56738891  0.37708036    -0.38000
N648        N  0.41549154  0.54725928  0.12069870    -0.38000
C649        C  0.34418600  0.99702749  0.42686802    -0.04700
C650        C  0.34538992  0.97672959  0.39277737    -0.01800
C651        C  0.32718189  0.97684518  0.35737658     0.03200
C652        C  0.30759820  0.99731611  0.35594236    -0.04700
C653        C  0.30840532  0.51912940  0.38818710    -0.01800
C654        C  0.32739108  0.51952145  0.42196243     0.03200
C655        C  0.36594966  0.95646542  0.39289552     0.37900
C656        C  0.28875778  0.54052558  0.38880444     0.37900
C657        C  0.33030190  0.54369106  0.45112479     0.36300
C658        C  0.32898030  0.95612657  0.32219630     0.36300
N659        N  0.33297063  0.56335526  0.47341448    -0.38500
N660        N  0.33048853  0.93963619  0.29406544    -0.38500
N661        N  0.27304772  0.55753013  0.38963501    -0.38000
N662        N  0.38266108  0.94055142  0.39121960    -0.38000
C663        C  0.33553162  0.99662906  0.08869939    -0.04700
C664        C  0.32540781  0.52146161  0.10769392    -0.01800
C665        C  0.31058617  0.52144664  0.14650239     0.03200
C666        C  0.30131218  0.99638201  0.16363979    -0.04700
C667        C  0.30824531  0.97140118  0.14096224    -0.01800
C668        C  0.32443326  0.97163466  0.10350377     0.03200
C669        C  0.32666612  0.54698941  0.08509583     0.37900
C670        C  0.29882569  0.94491044  0.15533002     0.37900
C671        C  0.32749315  0.94596987  0.07824302     0.36300
C672        C  0.30511400  0.54787705  0.16814014     0.36300
N673        N  0.32954706  0.92533920  0.05844061    -0.38500
N674        N  0.30101786  0.56907057  0.18511562    -0.38500
N675        N  0.29150696  0.92365938  0.16646688    -0.38000
N676        N  0.32721483  0.56776193  0.06817163    -0.38000
C677        C  0.04617490  0.91128522  0.48799845    -0.04700
C678        C  0.04288312  0.93734990  0.46984769    -0.01800
C679        C  0.06387692  0.95723536  0.47138073     0.03200
C680        C  0.08824815  0.95181933  0.49257964    -0.04700
C681        C  0.09297843  0.92420724  0.00258000    -0.01800
C682        C  0.07229390  0.90417081  0.00013221     0.03200
C683        C  0.01797244  0.94469037  0.45011936     0.37900
C684        C  0.11944903  0.91589789  0.01439016     0.37900
C685        C  0.07849318  0.87609817  0.00988891     0.36300
C686        C  0.05966768  0.98285398  0.45028168     0.36300
N687        N  0.08406669  0.85407242  0.01872246    -0.38500
N688        N  0.05550200  0.50265105  0.43205953    -0.38500
N689        N  0.14035581  0.90898979  0.02427687    -0.38000
N690        N  0.49855488  0.95130686  0.43367563    -0.38000
C691        C  0.04734107  0.58237913  0.98980029    -0.04700
C692        C  0.07437094  0.59029745  0.98425073    -0.01800
C693        C  0.09474829  0.57141023  0.99106930     0.03200
C694        C  0.08858197  0.54501932  0.50553200    -0.04700
C695        C  0.06226960  0.53851224  0.51670765    -0.01800
C696        C  0.04158990  0.55607554  0.50593251     0.03200
C697        C  0.08162125  0.61820691  0.97359901     0.37900
C698        C  0.05651480  0.51419031  0.54095185     0.37900
C699        C  0.01456530  0.54588923  0.50938766     0.36300
C700        C  0.12223669  0.57949441  0.98494658     0.36300
N701        N  0.49332139  0.53683355  0.51219646    -0.38500
N702        N  0.14416755  0.58588313  0.97999037    -0.38500
N703        N  0.05191266  0.99505394  0.56084065    -0.38000
N704        N  0.08749461  0.64048856  0.96532173    -0.38000
C705        C  0.16164358  0.99618540  0.43584457    -0.04700
C706        C  0.15699066  0.51335634  0.40057287    -0.01800
C707        C  0.17428267  0.51312823  0.36447893     0.03200
C708        C  0.19659498  0.99606040  0.36321609    -0.04700
C709        C  0.20056960  0.97801686  0.39725411    -0.01800
C710        C  0.18274160  0.97732182  0.43229504     0.03200
C711        C  0.13441273  0.53121666  0.40038986     0.37900
C712        C  0.22382252  0.96092896  0.39750296     0.37900
C713        C  0.18589375  0.95634038  0.46393543     0.36300
C714        C  0.16868784  0.53003049  0.32794915     0.36300
N715        N  0.18868773  0.93960965  0.48904952    -0.38500
N716        N  0.16418407  0.54339324  0.29870282    -0.38500
N717        N  0.24244454  0.94746386  0.39791898    -0.38000
N718        N  0.11620984  0.54519568  0.39855107    -0.38000
C719        C  0.15583853  0.50154602  0.10059002    -0.04700
C720        C  0.17833071  0.51966207  0.10437216    -0.01800
C721        C  0.19721485  0.51699190  0.13772158     0.03200
C722        C  0.19233052  0.99904873  0.17167406    -0.04700
C723        C  0.16781869  0.98462485  0.17248768    -0.01800
C724        C  0.14932215  0.98637068  0.13774847     0.03200
C725        C  0.18186819  0.54191968  0.07484299     0.37900
C726        C  0.16109186  0.96908874  0.21017703     0.37900
C727        C  0.12255831  0.97613551  0.14406001     0.36300
C728        C  0.22236106  0.53191429  0.13561049     0.36300
N729        N  0.10116583  0.96818629  0.14984952    -0.38500
N730        N  0.24244321  0.54364163  0.13344649    -0.38500
N731        N  0.15572600  0.95683264  0.24037058    -0.38000
N732        N  0.18467367  0.55978020  0.05158486    -0.38000
C733        C  0.13993591  0.49956871  0.55696211     0.87200
C734        C  0.12270820  0.52460925  0.55149495    -0.53100
C735        C  0.10980554  0.52486293  0.01258801     0.10100
C736        C  0.11562998  0.99982182  0.98131879     0.21000
C737        C  0.12092207  0.97458308  0.54693996    -0.53800
C738        C  0.10796852  0.97447026  0.00729212     0.10200
C739        C  0.15832769  0.49865936  0.51727692    -0.53300
C740        C  0.14607784  0.49879018  0.97760790     0.10800
H741        H  0.11984749  0.54022676  0.57731329     0.15300
H742        H  0.10599051  0.00023868  0.94920954     0.01000
H743        H  0.11815493  0.95788701  0.56847870     0.15600
H744        H  0.17971022  0.49774689  0.02050718     0.15400
O745        O  0.22300070  0.97368236  0.80835955    -0.73700
O746        O  0.27409604  0.97375247  0.71688596    -0.73800
O747        O  0.27674113  0.97357667  0.80551798    -0.73800
O748        O  0.22037850  0.97432604  0.71979215    -0.73900
O749        O  0.22155977  0.52018892  0.72489429    -0.73800
O750        O  0.27816050  0.51932401  0.80755850    -0.73800
O751        O  0.27478209  0.51926545  0.71968051    -0.73800
O752        O  0.22453234  0.51953906  0.81298991    -0.73800
Ni753      Ni  0.24850076  0.97217750  0.76253560     1.25400
Ni754      Ni  0.24979718  0.52115419  0.76648183     1.25400
C755        C  0.21554098  0.99651515  0.82617055     0.88400
C756        C  0.28268622  0.99646849  0.70221079     0.88400
C757        C  0.28663365  0.99656597  0.82097940     0.88400
C758        C  0.21214207  0.99760959  0.70765371     0.88600
C759        C  0.35537226  0.99637754  0.54996591     0.87200
C760        C  0.37569728  0.97297776  0.54908341    -0.53100
C761        C  0.39142912  0.97196163  0.01319846     0.10100
C762        C  0.38652703  0.99519987  0.98200529     0.21000
C763        C  0.37335386  0.52228734  0.54601379    -0.53800
C764        C  0.39017004  0.52195106  0.01113668     0.10200
C765        C  0.34078454  0.99333657  0.50640241    -0.53300
C766        C  0.35657329  0.99334012  0.97063126     0.10800
H767        H  0.37812641  0.95887003  0.57511173     0.15300
H768        H  0.39966566  0.99351499  0.95345264     0.01000
H769        H  0.37323138  0.53922386  0.56959749     0.15600
H770        H  0.31928794  0.99306538  0.00398428     0.15400
C771        C  0.50178446  0.63719630  0.94139878     0.87200
C772        C  0.02505173  0.61715576  0.94390265    -0.53100
C773        C  0.02533191  0.60170181  0.47994798     0.10100
C774        C  0.50189581  0.60764417  0.51055955     0.21000
C775        C  0.47669890  0.61936560  0.94659452    -0.53800
C776        C  0.47661081  0.60308490  0.48189283     0.10200
C777        C  0.50459074  0.65410523  0.98471606    -0.53300
C778        C  0.50362076  0.63892093  0.52070490     0.10800
H779        H  0.04104268  0.61623670  0.92084456     0.15700
H780        H  0.50275252  0.59564026  0.54015049     0.01000
H781        H  0.46010514  0.62012793  0.92404590     0.15600
H782        H  0.50653750  0.67639072  0.48713901     0.15400
O783        O  0.02015871  0.77532745  0.69359102    -0.73700
O784        O  0.02349978  0.72089065  0.78019365    -0.73800
O785        O  0.02117219  0.71973007  0.69183826    -0.73800
O786        O  0.02295738  0.77657831  0.78143947    -0.73900
O787        O  0.47886297  0.77551923  0.78420880    -0.73800
O788        O  0.47735110  0.71745291  0.69475848    -0.73800
O789        O  0.47936810  0.71999446  0.78277622    -0.73800
O790        O  0.47603145  0.77315736  0.69605758    -0.73800
Ni791      Ni  0.02351504  0.74817599  0.73662972     1.25400
Ni792      Ni  0.47633566  0.74648246  0.73947686     1.25400
C793        C  0.49742323  0.78295440  0.68043720     0.88400
C794        C  0.50178967  0.71196181  0.79632356     0.88400
C795        C  0.49913294  0.70896000  0.67822082     0.88400
C796        C  0.50137054  0.78513360  0.79822048     0.88600
C797        C  0.99754656  0.85742663  0.53670307     0.87200
C798        C  0.02184683  0.87706078  0.53357815    -0.53100
C799        C  0.02286572  0.89209586  0.99681211     0.10100
C800        C  0.99845946  0.88609586  0.96663426     0.21000
C801        C  0.47376182  0.87555816  0.53204770    -0.53800
C802        C  0.47389946  0.89080429  0.99625740     0.10200
C803        C  0.99884018  0.84007614  0.49383497    -0.53300
C804        C  0.99928797  0.85463687  0.95693861     0.10800
H805        H  0.03758754  0.87835120  0.55756297     0.15300
H806        H  0.99842318  0.89756919  0.93658261     0.01000
H807        H  0.45844254  0.87728371  0.55658379     0.15600
H808        H  0.99997012  0.81780461  0.99279465     0.15400
C809        C  0.50281388  0.80532846  0.83610987    -0.04700
C810        C  0.48615517  0.82831297  0.83891081    -0.01800
C811        C  0.48597389  0.84569037  0.87716177     0.03200
C812        C  0.00266134  0.84029319  0.91292744    -0.04700
C813        C  0.02134970  0.81898942  0.90777088    -0.01800
C814        C  0.02092291  0.80124874  0.87032075     0.03200
C815        C  0.46959797  0.83442392  0.80197663     0.37900
C816        C  0.04130486  0.81491031  0.94092851     0.37900
C817        C  0.03838735  0.77783301  0.86830206     0.36300
C818        C  0.46837994  0.86883793  0.87926587     0.36300
N819        N  0.05228135  0.75919091  0.86681793    -0.38500
N820        N  0.45456208  0.88753519  0.87987705    -0.38500
N821        N  0.05720298  0.81080569  0.96697628    -0.38000
N822        N  0.45656197  0.83934871  0.77232742    -0.38000
C823        C  0.99502920  0.84006628  0.57732379    -0.04700
C824        C  0.47818034  0.81619736  0.57595289    -0.01800
C825        C  0.47934320  0.79740076  0.60928585     0.03200
C826        C  0.49562250  0.80318087  0.64611783    -0.04700
C827        C  0.50848741  0.82911315  0.65138876    -0.01800
C828        C  0.00717637  0.84803509  0.61798217     0.03200
C829        C  0.45850427  0.81138660  0.54154462     0.37900
C830        C  0.52170224  0.83695088  0.69231041     0.37900
C831        C  0.01483451  0.87649299  0.62832765     0.36300
C832        C  0.46400542  0.77184166  0.60498783     0.36300
N833        N  0.02071141  0.89922357  0.63703140    -0.38500
N834        N  0.45157154  0.75162753  0.60110937    -0.38500
N835        N  0.53209086  0.84319923  0.72504963    -0.38000
N836        N  0.44281155  0.80746548  0.01421814    -0.38000
C837        C  0.50013638  0.65516463  0.90099510    -0.04700
C838        C  0.48502470  0.67960624  0.90275420    -0.01800
C839        C  0.48700282  0.69865025  0.86974053     0.03200
C840        C  0.50202197  0.69263963  0.83226515    -0.04700
C841        C  0.01435071  0.66699665  0.82747677    -0.01800
C842        C  0.01228001  0.64778027  0.86054468     0.03200
C843        C  0.46588929  0.68487283  0.93684091     0.37900
C844        C  0.02813595  0.65976176  0.78753418     0.37900
C845        C  0.01913060  0.61951975  0.84959256     0.36300
C846        C  0.47389313  0.72492840  0.87498090     0.36300
N847        N  0.02448520  0.59700596  0.84022291    -0.38500
N848        N  0.46351451  0.74586153  0.87926282    -0.38500
N849        N  0.03922814  0.65383623  0.75584794    -0.38000
N850        N  0.45033004  0.68982961  0.46325656    -0.38000
C851        C  0.49917494  0.68712046  0.64175724    -0.04700
C852        C  0.02304198  0.67365136  0.62968736    -0.01800
C853        C  0.02395089  0.65623418  0.59174565     0.03200
C854        C  0.50149842  0.65252690  0.56476027    -0.04700
C855        C  0.47728017  0.66395462  0.57804469    -0.01800
C856        C  0.47585258  0.68041436  0.61690220     0.03200
C857        C  0.04700893  0.67735270  0.65584054     0.37900
C858        C  0.45347797  0.65808312  0.55217400     0.37900
C859        C  0.45012436  0.69008112  0.63063425     0.36300
C860        C  0.04823508  0.64239838  0.58019567     0.36300
N861        N  0.42940992  0.69737577  0.64136987    -0.38500
N862        N  0.06772618  0.63131732  0.57192954    -0.38500
N863        N  0.43433343  0.65298291  0.53222876    -0.38000
N864        N  0.06631471  0.68026468  0.67621377    -0.38000
C865        C  0.41283551  0.95144189  0.00666943    -0.04700
C866        C  0.43897139  0.95798298  0.02070785    -0.01800
C867        C  0.45919249  0.93859703  0.01513319     0.03200
C868        C  0.45388039  0.91279258  0.99354238    -0.04700
C869        C  0.42746929  0.90575730  0.48115473    -0.01800
C870        C  0.40699535  0.92485167  0.48829496     0.03200
C871        C  0.44489500  0.98352247  0.04501738     0.37900
C872        C  0.42103282  0.87809255  0.46419114     0.37900
C873        C  0.37969323  0.91649850  0.47936109     0.36300
C874        C  0.48470667  0.94414779  0.03623259     0.36300
N875        N  0.35793414  0.90968963  0.47225339    -0.38500
N876        N  0.00475404  0.94872886  0.05385069    -0.38500
N877        N  0.41588090  0.85597843  0.45086104    -0.38000
N878        N  0.45088165  0.50314802  0.06560996    -0.38000
C879        C  0.41131180  0.54413527  0.00428536    -0.04700
C880        C  0.42485945  0.55824669  0.53990826    -0.01800
C881        C  0.44509759  0.57812720  0.53278812     0.03200
C882        C  0.45420324  0.58275195  0.49020493    -0.04700
C883        C  0.44171713  0.56749749  0.95499260    -0.01800
C884        C  0.41922136  0.55046934  0.96170115     0.03200
C885        C  0.41938608  0.55196144  0.58472769     0.37900
C886        C  0.45288046  0.56754429  0.91163667     0.37900
C887        C  0.40369764  0.54088971  0.92392932     0.36300
C888        C  0.45656952  0.59305431  0.57048275     0.36300
N889        N  0.39172842  0.53367795  0.89311209    -0.38500
N890        N  0.46521904  0.60389898  0.60187269    -0.38500
N891        N  0.46177153  0.56738904  0.87707955    -0.38000
N892        N  0.41549144  0.54725945  0.62069787    -0.38000
C893        C  0.34418575  0.99702758  0.92686788    -0.04700
C894        C  0.34539016  0.97672946  0.89277750    -0.01800
C895        C  0.32718183  0.97684514  0.85737645     0.03200
C896        C  0.30759812  0.99731616  0.85594240    -0.04700
C897        C  0.30840532  0.51912949  0.88818723    -0.01800
C898        C  0.32739106  0.51952152  0.92196234     0.03200
C899        C  0.36594920  0.95646594  0.89289549     0.37900
C900        C  0.28875783  0.54052558  0.88880444     0.37900
C901        C  0.33030181  0.54369118  0.95112512     0.36300
C902        C  0.32898028  0.95612661  0.82219636     0.36300
N903        N  0.33297041  0.56335522  0.97341468    -0.38500
N904        N  0.33048846  0.93963623  0.79406539    -0.38500
N905        N  0.27304763  0.55753019  0.88963505    -0.38000
N906        N  0.38266141  0.94055119  0.89121947    -0.38000
C907        C  0.33553144  0.99662899  0.58869896    -0.04700
C908        C  0.32540737  0.52146192  0.60769431    -0.01800
C909        C  0.31058611  0.52144618  0.64650210     0.03200
C910        C  0.30131200  0.99638215  0.66363999    -0.04700
C911        C  0.30824514  0.97140120  0.64096227    -0.01800
C912        C  0.32443283  0.97163448  0.60350397     0.03200
C913        C  0.32666585  0.54698959  0.58509573     0.37900
C914        C  0.29882529  0.94491016  0.65533005     0.37900
C915        C  0.32749277  0.94596978  0.57824296     0.36300
C916        C  0.30511360  0.54787805  0.66814107     0.36300
N917        N  0.32954692  0.92533933  0.55844057    -0.38500
N918        N  0.30101791  0.56906996  0.68511491    -0.38500
N919        N  0.29150661  0.92365959  0.66646630    -0.38000
N920        N  0.32721460  0.56776168  0.56817148    -0.38000
C921        C  0.04617524  0.91128525  0.98799818    -0.04700
C922        C  0.04288295  0.93734999  0.96984750    -0.01800
C923        C  0.06387703  0.95723541  0.97138081     0.03200
C924        C  0.08824809  0.95181930  0.99257999    -0.04700
C925        C  0.09297831  0.92420726  0.50257963    -0.01800
C926        C  0.07229380  0.90417071  0.50013240     0.03200
C927        C  0.01797294  0.94469027  0.95011965     0.37900
C928        C  0.11944892  0.91589784  0.51438981     0.37900
C929        C  0.07849288  0.87609839  0.50988901     0.36300
C930        C  0.05966773  0.98285357  0.95028221     0.36300
N931        N  0.08406667  0.85407224  0.51872244    -0.38500
N932        N  0.05550208  0.50265063  0.93205960    -0.38500
N933        N  0.14035575  0.90898971  0.52427672    -0.38000
N934        N  0.49855501  0.95130715  0.93367561    -0.38000
C935        C  0.04734115  0.58237923  0.48980052    -0.04700
C936        C  0.07437070  0.59029736  0.48425096    -0.01800
C937        C  0.09474853  0.57141012  0.49106959     0.03200
C938        C  0.08858191  0.54501933  0.00553130    -0.04700
C939        C  0.06226956  0.53851242  0.01670723    -0.01800
C940        C  0.04158984  0.55607555  0.00593223     0.03200
C941        C  0.08162114  0.61820664  0.47359912     0.37900
C942        C  0.05651472  0.51419015  0.04095171     0.37900
C943        C  0.01456590  0.54588954  0.00938733     0.36300
C944        C  0.12223592  0.57949417  0.48494699     0.36300
N945        N  0.49332143  0.53683351  0.01219618    -0.38500
N946        N  0.14416797  0.58588322  0.47999051    -0.38500
N947        N  0.05191266  0.99505432  0.06084039    -0.38000
N948        N  0.08749465  0.64048865  0.46532170    -0.38000
C949        C  0.16164325  0.99618538  0.93584435    -0.04700
C950        C  0.15699053  0.51335632  0.90057301    -0.01800
C951        C  0.17428272  0.51312819  0.86447921     0.03200
C952        C  0.19659494  0.99606058  0.86321615    -0.04700
C953        C  0.20056985  0.97801684  0.89725428    -0.01800
C954        C  0.18274149  0.97732203  0.93229520     0.03200
C955        C  0.13441270  0.53121664  0.90038975     0.37900
C956        C  0.22382198  0.96092952  0.89750314     0.37900
C957        C  0.18589376  0.95634059  0.96393566     0.36300
C958        C  0.16868791  0.53003089  0.82794888     0.36300
N959        N  0.18868787  0.93960978  0.98904983    -0.38500
N960        N  0.16418437  0.54339326  0.79870337    -0.38500
N961        N  0.24244492  0.94746365  0.89791908    -0.38000
N962        N  0.11620980  0.54519580  0.89855093    -0.38000
C963        C  0.15583913  0.50154553  0.60058973    -0.04700
C964        C  0.17833067  0.51966176  0.60437203    -0.01800
C965        C  0.19721520  0.51699202  0.63772162     0.03200
C966        C  0.19233038  0.99904889  0.67167402    -0.04700
C967        C  0.16781880  0.98462486  0.67248818    -0.01800
C968        C  0.14932195  0.98637045  0.63774800     0.03200
C969        C  0.18186823  0.54191967  0.57484292     0.37900
C970        C  0.16109191  0.96908942  0.71017583     0.37900
C971        C  0.12255922  0.97613542  0.64405894     0.36300
C972        C  0.22236013  0.53191364  0.63561065     0.36300
N973        N  0.10116536  0.96818595  0.64984882    -0.38500
N974        N  0.24244382  0.54364194  0.63344649    -0.38500
N975        N  0.15572575  0.95683264  0.74037147    -0.38000
N976        N  0.18467366  0.55978022  0.55158514    -0.38000
C977        C  0.63993664  0.99956831  0.05696306     0.87200
C978        C  0.62270819  0.02460931  0.05149413    -0.53100
C979        C  0.60980543  0.02486185  0.51258577     0.10100
C980        C  0.61563002  0.49982229  0.48131791     0.21000
C981        C  0.62092253  0.47458266  0.04693944    -0.53800
C982        C  0.60796790  0.47446966  0.50729120     0.10200
C983        C  0.65832834  0.99865903  0.01727700    -0.53300
C984        C  0.64607766  0.99878948  0.47760619     0.10800
H985        H  0.61984758  0.04022450  0.07730853     0.15300
H986        H  0.60599108  0.50023983  0.44921239     0.01000
H987        H  0.61815753  0.45788230  0.06848061     0.15600
H988        H  0.67970975  0.99774743  0.52050422     0.15400
O989        O  0.72300072  0.47368229  0.30835943    -0.73700
O990        O  0.77409602  0.47375261  0.21688581    -0.73800
O991        O  0.77674121  0.47357674  0.30551791    -0.73800
O992        O  0.72037844  0.47432612  0.21979189    -0.73900
O993        O  0.72155979  0.02018919  0.22489427    -0.73800
O994        O  0.77816046  0.01932413  0.30755847    -0.73800
O995        O  0.77478220  0.01926580  0.21968060    -0.73800
O996        O  0.72453238  0.01953917  0.31298989    -0.73800
Ni997      Ni  0.74850079  0.47217759  0.26253542     1.25400
Ni998      Ni  0.74979723  0.02115436  0.26648188     1.25400
C999        C  0.71554088  0.49651530  0.32617049     0.88400
C1000       C  0.78268641  0.49646892  0.20221053     0.88400
C1001       C  0.78663370  0.49656598  0.32097943     0.88400
C1002       C  0.71214195  0.49760954  0.20765344     0.88600
C1003       C  0.85537293  0.49637847  0.04996585     0.87200
C1004       C  0.87569751  0.47297810  0.04908318    -0.53100
C1005       C  0.89142958  0.47196145  0.51319928     0.10100
C1006       C  0.88652751  0.49519971  0.48200576     0.21000
C1007       C  0.87335332  0.02228786  0.04601447    -0.53800
C1008       C  0.89016859  0.02195164  0.51113945     0.10200
C1009       C  0.84078487  0.49333738  0.00640318    -0.53300
C1010       C  0.85657390  0.49334015  0.47063169     0.10800
H1011       H  0.87812564  0.45887507  0.07510028     0.15300
H1012       H  0.89966840  0.49351565  0.45345400     0.01000
H1013       H  0.87323071  0.03921634  0.06958419     0.15600
H1014       H  0.81928847  0.49306614  0.50398547     0.15400
C1015       C  0.00178301  0.13719569  0.44139830     0.87200
C1016       C  0.52505204  0.11715566  0.44390261    -0.53100
C1017       C  0.52533274  0.10170144  0.97994878     0.10100
C1018       C  0.00189561  0.10764442  0.01055950     0.21000
C1019       C  0.97669768  0.11936510  0.44659456    -0.53800
C1020       C  0.97660996  0.10308504  0.98189305     0.10200
C1021       C  0.00458968  0.15410444  0.48471603    -0.53300
C1022       C  0.00362047  0.13892067  0.02070594     0.10800
H1023       H  0.54104181  0.11623499  0.42084609     0.15700
H1024       H  0.00275132  0.09563901  0.04015401     0.01000
H1025       H  0.96009967  0.12012721  0.42404099     0.15600
H1026       H  0.00653706  0.17639001  0.98713977     0.15400
O1027       O  0.52015862  0.27532750  0.19359104    -0.73700
O1028       O  0.52349995  0.22089066  0.28019363    -0.73800
O1029       O  0.52117198  0.21973011  0.19183830    -0.73800
O1030       O  0.52295724  0.27657830  0.28143965    -0.73900
O1031       O  0.97886283  0.27551933  0.28420900    -0.73800
O1032       O  0.97735124  0.21745297  0.19475858    -0.73800
O1033       O  0.97936795  0.21999449  0.28277637    -0.73800
O1034       O  0.97603161  0.27315750  0.19605756    -0.73800
Ni1035     Ni  0.52351503  0.24817607  0.23662972     1.25400
Ni1036     Ni  0.97633550  0.24648254  0.23947689     1.25400
C1037       C  0.99742302  0.28295457  0.18043701     0.88400
C1038       C  0.00178919  0.21196181  0.29632372     0.88400
C1039       C  0.99913285  0.20896001  0.17822088     0.88400
C1040       C  0.00136999  0.28513360  0.29822058     0.88600
C1041       C  0.49754729  0.35742633  0.03670107     0.87200
C1042       C  0.52184731  0.37706010  0.03357803    -0.53100
C1043       C  0.52286582  0.39209543  0.49681492     0.10100
C1044       C  0.49845958  0.38609608  0.46663494     0.21000
C1045       C  0.97376192  0.37555863  0.03204803    -0.53800
C1046       C  0.97389893  0.39080419  0.49625772     0.10200
C1047       C  0.49884059  0.34007552  0.99383408    -0.53300
C1048       C  0.49928792  0.35463706  0.45694046     0.10800
H1049       H  0.53758743  0.37835182  0.05756154     0.15300
H1050       H  0.49842432  0.39756799  0.43658861     0.01000
H1051       H  0.95844244  0.37728485  0.05658241     0.15600
H1052       H  0.49996877  0.31780434  0.49279370     0.15400
C1053       C  0.00281376  0.30532853  0.33611027    -0.04700
C1054       C  0.98615509  0.32831307  0.33891080    -0.01800
C1055       C  0.98597394  0.34569042  0.37716234     0.03200
C1056       C  0.50266154  0.34029349  0.41292754    -0.04700
C1057       C  0.52134982  0.31898961  0.40777121    -0.01800
C1058       C  0.52092292  0.30124852  0.37032085     0.03200
C1059       C  0.96959812  0.33442400  0.30197712     0.37900
C1060       C  0.54130501  0.31491024  0.44092839     0.37900
C1061       C  0.53838676  0.27783347  0.36830225     0.36300
C1062       C  0.96838011  0.36883784  0.37926619     0.36300
N1063       N  0.55228140  0.25919033  0.36681805    -0.38500
N1064       N  0.95456208  0.38753530  0.37987732    -0.38500
N1065       N  0.55720311  0.31080555  0.46697631    -0.38000
N1066       N  0.95656190  0.33934887  0.27232731    -0.38000
C1067       C  0.49502925  0.34006583  0.07732357    -0.04700
C1068       C  0.97818051  0.31619758  0.07595262    -0.01800
C1069       C  0.97934319  0.29740086  0.10928570     0.03200
C1070       C  0.99562257  0.30318102  0.14611799    -0.04700
C1071       C  0.00848721  0.32911336  0.15138833    -0.01800
C1072       C  0.50717639  0.34803530  0.11798186     0.03200
C1073       C  0.95850472  0.31138674  0.04154495     0.37900
C1074       C  0.02170243  0.33695118  0.19231108     0.37900
C1075       C  0.51483427  0.37649211  0.12832700     0.36300
C1076       C  0.96400558  0.27184167  0.10498780     0.36300
N1077       N  0.52071151  0.39922397  0.13703139    -0.38500
N1078       N  0.95157176  0.25162725  0.10110932    -0.38500
N1079       N  0.03209071  0.34319931  0.22504898    -0.38000
N1080       N  0.94281155  0.30746548  0.51421852    -0.38000
C1081       C  0.00013605  0.15516441  0.40099503    -0.04700
C1082       C  0.98502468  0.17960649  0.40275432    -0.01800
C1083       C  0.98700296  0.19865010  0.36974075     0.03200
C1084       C  0.00202193  0.19263977  0.33226509    -0.04700
C1085       C  0.51435064  0.16699662  0.32747682    -0.01800
C1086       C  0.51228010  0.14778008  0.36054475     0.03200
C1087       C  0.96588935  0.18487296  0.43684107     0.37900
C1088       C  0.52813631  0.15976148  0.28753322     0.37900
C1089       C  0.51913064  0.11951993  0.34959287     0.36300
C1090       C  0.97389279  0.22492923  0.37498116     0.36300
N1091       N  0.52448522  0.09700577  0.34022293    -0.38500
N1092       N  0.96351479  0.24586120  0.37926284    -0.38500
N1093       N  0.53922806  0.15383628  0.25584833    -0.38000
N1094       N  0.95033022  0.18982985  0.96325740    -0.38000
C1095       C  0.99917495  0.18712056  0.14175746    -0.04700
C1096       C  0.52304222  0.17365144  0.12968770    -0.01800
C1097       C  0.52395067  0.15623434  0.09174584     0.03200
C1098       C  0.00149860  0.15252677  0.06476060    -0.04700
C1099       C  0.97728019  0.16395461  0.07804507    -0.01800
C1100       C  0.97585274  0.18041427  0.11690243     0.03200
C1101       C  0.54700816  0.17735275  0.15583985     0.37900
C1102       C  0.95347822  0.15808301  0.05217439     0.37900
C1103       C  0.95012427  0.19008098  0.13063468     0.36300
C1104       C  0.54823564  0.14239824  0.08019560     0.36300
N1105       N  0.92941012  0.19737543  0.14137025    -0.38500
N1106       N  0.56772595  0.13131769  0.07192967    -0.38500
N1107       N  0.93433349  0.15298274  0.03222890    -0.38000
N1108       N  0.56631520  0.18026493  0.17621427    -0.38000
C1109       C  0.91283576  0.45144204  0.50666959    -0.04700
C1110       C  0.93897147  0.45798261  0.52070761    -0.01800
C1111       C  0.95919261  0.43859715  0.51513337     0.03200
C1112       C  0.95388028  0.41279250  0.49354229    -0.04700
C1113       C  0.92746908  0.40575751  0.98115487    -0.01800
C1114       C  0.90699516  0.42485189  0.98829494     0.03200
C1115       C  0.94489529  0.48352317  0.54501810     0.37900
C1116       C  0.92103272  0.37809259  0.96419135     0.37900
C1117       C  0.87969345  0.41649873  0.97936133     0.36300
C1118       C  0.98470666  0.44414768  0.53623273     0.36300
N1119       N  0.85793390  0.40968964  0.97225338    -0.38500
N1120       N  0.50475362  0.44872865  0.55385058    -0.38500
N1121       N  0.91588075  0.35597844  0.95086140    -0.38000
N1122       N  0.95088150  0.00314791  0.56561069    -0.38000
C1123       C  0.91131154  0.04413556  0.50428561    -0.04700
C1124       C  0.92485935  0.05824651  0.03990788    -0.01800
C1125       C  0.94509740  0.07812718  0.03278849     0.03200
C1126       C  0.95420308  0.08275224  0.99020542    -0.04700
C1127       C  0.94171677  0.06749712  0.45499286    -0.01800
C1128       C  0.91922099  0.05046907  0.46170168     0.03200
C1129       C  0.91938605  0.05196122  0.08472760     0.37900
C1130       C  0.95288054  0.06754398  0.41163519     0.37900
C1131       C  0.90369749  0.04088984  0.42393009     0.36300
C1132       C  0.95656936  0.09305416  0.07048310     0.36300
N1133       N  0.89172810  0.03367802  0.39311201    -0.38500
N1134       N  0.96521923  0.10389887  0.10187320    -0.38500
N1135       N  0.96177115  0.06738912  0.37708025    -0.38000
N1136       N  0.91549157  0.04725943  0.12069806    -0.38000
C1137       C  0.84418596  0.49702776  0.42686798    -0.04700
C1138       C  0.84539028  0.47672956  0.39277753    -0.01800
C1139       C  0.82718187  0.47684510  0.35737623     0.03200
C1140       C  0.80759816  0.49731625  0.35594251    -0.04700
C1141       C  0.80840540  0.01912951  0.38818699    -0.01800
C1142       C  0.82739102  0.01952205  0.42196277     0.03200
C1143       C  0.86594921  0.45646607  0.39289530     0.37900
C1144       C  0.78875798  0.04052575  0.38880437     0.37900
C1145       C  0.83030181  0.04369116  0.45112484     0.36300
C1146       C  0.82898030  0.45612703  0.32219677     0.36300
N1147       N  0.83297053  0.06335560  0.47341510    -0.38500
N1148       N  0.83048857  0.43963614  0.29406479    -0.38500
N1149       N  0.77304787  0.05753053  0.38963502    -0.38000
N1150       N  0.88266146  0.44055128  0.39121929    -0.38000
C1151       C  0.83553162  0.49662889  0.08869915    -0.04700
C1152       C  0.82540752  0.02146188  0.10769380    -0.01800
C1153       C  0.81058617  0.02144643  0.14650212     0.03200
C1154       C  0.80131207  0.49638229  0.16364001    -0.04700
C1155       C  0.80824550  0.47140138  0.14096208    -0.01800
C1156       C  0.82443320  0.47163496  0.10350409     0.03200
C1157       C  0.82666560  0.04698933  0.08509561     0.37900
C1158       C  0.79882578  0.44491026  0.15533038     0.37900
C1159       C  0.82749319  0.44596994  0.07824295     0.36300
C1160       C  0.80511361  0.04787813  0.16814063     0.36300
N1161       N  0.82954703  0.42533938  0.05844068    -0.38500
N1162       N  0.80101772  0.06907027  0.18511465    -0.38500
N1163       N  0.79150739  0.42365974  0.16646715    -0.38000
N1164       N  0.82721449  0.06776198  0.06817108    -0.38000
C1165       C  0.54617481  0.41128531  0.48799834    -0.04700
C1166       C  0.54288319  0.43734962  0.46984792    -0.01800
C1167       C  0.56387669  0.45723512  0.47138073     0.03200
C1168       C  0.58824792  0.45181926  0.49257893    -0.04700
C1169       C  0.59297829  0.42420698  0.00257998    -0.01800
C1170       C  0.57229391  0.40417066  0.00013229     0.03200
C1171       C  0.51797240  0.44469024  0.45011942     0.37900
C1172       C  0.61944937  0.41589754  0.01439046     0.37900
C1173       C  0.57849308  0.37609795  0.00988903     0.36300
C1174       C  0.55966763  0.48285337  0.45028234     0.36300
N1175       N  0.58406661  0.35407230  0.01872244    -0.38500
N1176       N  0.55550213  0.00265039  0.43205986    -0.38500
N1177       N  0.64035557  0.40898972  0.02427701    -0.38000
N1178       N  0.99855486  0.45130700  0.43367561    -0.38000
C1179       C  0.54734114  0.08237912  0.98980077    -0.04700
C1180       C  0.57437098  0.09029686  0.98425124    -0.01800
C1181       C  0.59474846  0.07141013  0.99106947     0.03200
C1182       C  0.58858198  0.04501910  0.50553081    -0.04700
C1183       C  0.56226951  0.03851215  0.51670741    -0.01800
C1184       C  0.54159017  0.05607537  0.50593238     0.03200
C1185       C  0.58162150  0.11820776  0.97359887     0.37900
C1186       C  0.55651487  0.01419029  0.54095164     0.37900
C1187       C  0.51456519  0.04588895  0.50938734     0.36300
C1188       C  0.62223663  0.07949435  0.98494685     0.36300
N1189       N  0.99332095  0.03683329  0.51219618    -0.38500
N1190       N  0.64416759  0.08588319  0.97999059    -0.38500
N1191       N  0.55191264  0.49505428  0.56084030    -0.38000
N1192       N  0.58749448  0.14048800  0.96532195    -0.38000
C1193       C  0.66164337  0.49618528  0.43584411    -0.04700
C1194       C  0.65699085  0.01335632  0.40057278    -0.01800
C1195       C  0.67428263  0.01312847  0.36447913     0.03200
C1196       C  0.69659500  0.49606042  0.36321606    -0.04700
C1197       C  0.70056934  0.47801720  0.39725405    -0.01800
C1198       C  0.68274145  0.47732175  0.43229529     0.03200
C1199       C  0.63441237  0.03121717  0.40038980     0.37900
C1200       C  0.72382292  0.46092871  0.39750299     0.37900
C1201       C  0.68589353  0.45634107  0.46393456     0.36300
C1202       C  0.66868787  0.03003108  0.32794864     0.36300
N1203       N  0.68868779  0.43960932  0.48905007    -0.38500
N1204       N  0.66418431  0.04339341  0.29870343    -0.38500
N1205       N  0.74244419  0.44746410  0.39791885    -0.38000
N1206       N  0.61621023  0.04519565  0.39855115    -0.38000
C1207       C  0.65583892  0.00154560  0.10059003    -0.04700
C1208       C  0.67833082  0.01966225  0.10437218    -0.01800
C1209       C  0.69721509  0.01699213  0.13772190     0.03200
C1210       C  0.69233039  0.49904894  0.17167387    -0.04700
C1211       C  0.66781874  0.48462496  0.17248791    -0.01800
C1212       C  0.64932204  0.48637072  0.13774812     0.03200
C1213       C  0.68186800  0.04191932  0.07484381     0.37900
C1214       C  0.66109178  0.46908907  0.21017678     0.37900
C1215       C  0.62255861  0.47613582  0.14405959     0.36300
C1216       C  0.72236054  0.03191422  0.13561064     0.36300
N1217       N  0.60116561  0.46818650  0.14984927    -0.38500
N1218       N  0.74244359  0.04364214  0.13344647    -0.38500
N1219       N  0.65572571  0.45683285  0.24037101    -0.38000
N1220       N  0.68467355  0.05978073  0.05158479    -0.38000
C1221       C  0.63993548  0.99956886  0.55696117     0.87200
C1222       C  0.62270771  0.02460946  0.55149332    -0.53100
C1223       C  0.60980643  0.02486158  0.01258712     0.10100
C1224       C  0.61562965  0.49982197  0.98131835     0.21000
C1225       C  0.62092152  0.47458202  0.54693890    -0.53800
C1226       C  0.60796846  0.47446992  0.00729187     0.10200
C1227       C  0.65832766  0.99865924  0.51727683    -0.53300
C1228       C  0.64607899  0.99878940  0.97760784     0.10800
H1229       H  0.61984608  0.04022548  0.57730679     0.15300
H1230       H  0.60599019  0.50023930  0.94921120     0.01000
H1231       H  0.61815488  0.45787962  0.56848079     0.15600
H1232       H  0.67971669  0.99774747  0.02050617     0.15400
O1233       O  0.72300069  0.47368207  0.80835944    -0.73700
O1234       O  0.77409611  0.47375259  0.71688582    -0.73800
O1235       O  0.77674122  0.47357687  0.80551786    -0.73800
O1236       O  0.72037848  0.47432590  0.71979179    -0.73900
O1237       O  0.72155979  0.02018927  0.72489420    -0.73800
O1238       O  0.77816049  0.01932412  0.80755847    -0.73800
O1239       O  0.77478211  0.01926571  0.71968058    -0.73800
O1240       O  0.72453238  0.01953907  0.81298985    -0.73800
Ni1241     Ni  0.74850083  0.47217738  0.76253542     1.25400
Ni1242     Ni  0.74979721  0.02115446  0.76648186     1.25400
C1243       C  0.71554094  0.49651471  0.82617032     0.88400
C1244       C  0.78268626  0.49646862  0.70221070     0.88400
C1245       C  0.78663370  0.49656593  0.82097928     0.88400
C1246       C  0.71214207  0.49760881  0.70765343     0.88600
C1247       C  0.85537355  0.49637802  0.54996598     0.87200
C1248       C  0.87569817  0.47297770  0.54908286    -0.53100
C1249       C  0.89142910  0.47196195  0.01319935     0.10100
C1250       C  0.88652749  0.49519981  0.98200567     0.21000
C1251       C  0.87335355  0.02228804  0.54601470    -0.53800
C1252       C  0.89016991  0.02195162  0.01113660     0.10200
C1253       C  0.84078538  0.49333707  0.50640334    -0.53300
C1254       C  0.85657348  0.49334038  0.97063172     0.10800
H1255       H  0.87812704  0.45887181  0.57510409     0.15300
H1256       H  0.89966731  0.49351565  0.95345627     0.01000
H1257       H  0.87322973  0.03922093  0.56959322     0.15600
H1258       H  0.81928779  0.49306553  0.00398486     0.15400
C1259       C  0.00178327  0.13719508  0.94139829     0.87200
C1260       C  0.52505208  0.11715552  0.94390338    -0.53100
C1261       C  0.52533241  0.10170153  0.47994781     0.10100
C1262       C  0.00189565  0.10764415  0.51056074     0.21000
C1263       C  0.97669808  0.11936503  0.94659440    -0.53800
C1264       C  0.97661016  0.10308539  0.48189341     0.10200
C1265       C  0.00458967  0.15410408  0.98471534    -0.53300
C1266       C  0.00362045  0.13892118  0.52070595     0.10800
H1267       H  0.54104301  0.11623439  0.92084559     0.15700
H1268       H  0.00275212  0.09564186  0.54015105     0.01000
H1269       H  0.96009708  0.12012775  0.92403730     0.15600
H1270       H  0.00653772  0.17639219  0.48714168     0.15400
O1271       O  0.52015875  0.27532740  0.69359097    -0.73700
O1272       O  0.52349981  0.22089052  0.78019371    -0.73800
O1273       O  0.52117201  0.21972994  0.69183819    -0.73800
O1274       O  0.52295709  0.27657814  0.78143947    -0.73900
O1275       O  0.97886298  0.27551926  0.78420883    -0.73800
O1276       O  0.97735111  0.21745288  0.69475844    -0.73800
O1277       O  0.97936786  0.21999447  0.78277631    -0.73800
O1278       O  0.97603156  0.27315745  0.69605752    -0.73800
Ni1279     Ni  0.52351505  0.24817595  0.73662977     1.25400
Ni1280     Ni  0.97633552  0.24648253  0.73947688     1.25400
C1281       C  0.99742300  0.28295445  0.68043716     0.88400
C1282       C  0.00178908  0.21196180  0.79632365     0.88400
C1283       C  0.99913246  0.20895997  0.67822089     0.88400
C1284       C  0.00137069  0.28513360  0.79822049     0.88600
C1285       C  0.49754744  0.35742606  0.53670438     0.87200
C1286       C  0.52184764  0.37706112  0.53357868    -0.53100
C1287       C  0.52286572  0.39209551  0.99681257     0.10100
C1288       C  0.49845975  0.38609570  0.96663458     0.21000
C1289       C  0.97376187  0.37555798  0.53204762    -0.53800
C1290       C  0.97389827  0.39080500  0.99625779     0.10200
C1291       C  0.49884048  0.34007568  0.49383454    -0.53300
C1292       C  0.49928807  0.35463685  0.95693796     0.10800
H1293       H  0.53759134  0.37835354  0.55756920     0.15300
H1294       H  0.49842467  0.39756911  0.93658239     0.01000
H1295       H  0.95844513  0.37728364  0.55657797     0.15600
H1296       H  0.49996967  0.31780380  0.99279139     0.15400
C1297       C  0.00281383  0.30532851  0.83611010    -0.04700
C1298       C  0.98615502  0.32831294  0.83891080    -0.01800
C1299       C  0.98597367  0.34569034  0.87716191     0.03200
C1300       C  0.50266150  0.34029326  0.91292694    -0.04700
C1301       C  0.52134972  0.31898935  0.90777077    -0.01800
C1302       C  0.52092280  0.30124835  0.87032054     0.03200
C1303       C  0.96959799  0.33442381  0.80197687     0.37900
C1304       C  0.54130465  0.31491015  0.94092792     0.37900
C1305       C  0.53838661  0.27783348  0.86830207     0.36300
C1306       C  0.96837930  0.36883817  0.87926584     0.36300
N1307       N  0.55228139  0.25919029  0.86681800    -0.38500
N1308       N  0.95456191  0.38753477  0.87987717    -0.38500
N1309       N  0.55720300  0.31080542  0.96697656    -0.38000
N1310       N  0.95656183  0.33934869  0.77232726    -0.38000
C1311       C  0.49502960  0.34006592  0.57732383    -0.04700
C1312       C  0.97818037  0.31619740  0.57595298    -0.01800
C1313       C  0.97934323  0.29740064  0.60928579     0.03200
C1314       C  0.99562257  0.30318099  0.64611797    -0.04700
C1315       C  0.00848729  0.32911328  0.65138875    -0.01800
C1316       C  0.50717649  0.34803492  0.61798243     0.03200
C1317       C  0.95850439  0.31138649  0.54154477     0.37900
C1318       C  0.02170213  0.33695100  0.69231082     0.37900
C1319       C  0.51483468  0.37649290  0.62832752     0.36300
C1320       C  0.96400582  0.27184173  0.60498774     0.36300
N1321       N  0.52071140  0.39922346  0.63703131    -0.38500
N1322       N  0.95157180  0.25162714  0.60110920    -0.38500
N1323       N  0.03209056  0.34319927  0.72504963    -0.38000
N1324       N  0.94281133  0.30746560  0.01421857    -0.38000
C1325       C  0.00013604  0.15516436  0.90099516    -0.04700
C1326       C  0.98502454  0.17960633  0.90275452    -0.01800
C1327       C  0.98700292  0.19864993  0.86974064     0.03200
C1328       C  0.00202176  0.19263972  0.83226500    -0.04700
C1329       C  0.51435057  0.16699647  0.82747675    -0.01800
C1330       C  0.51228001  0.14778010  0.86054489     0.03200
C1331       C  0.96588956  0.18487277  0.93684038     0.37900
C1332       C  0.52813610  0.15976137  0.78753329     0.37900
C1333       C  0.51913073  0.11951950  0.84959300     0.36300
C1334       C  0.97389248  0.22492951  0.87498122     0.36300
N1335       N  0.52448517  0.09700601  0.84022320    -0.38500
N1336       N  0.96351466  0.24586093  0.87926266    -0.38500
N1337       N  0.53922785  0.15383605  0.75584801    -0.38000
N1338       N  0.95033045  0.18982976  0.46325695    -0.38000
C1339       C  0.99917500  0.18712041  0.64175738    -0.04700
C1340       C  0.52304223  0.17365134  0.62968782    -0.01800
C1341       C  0.52395073  0.15623389  0.59174570     0.03200
C1342       C  0.00149862  0.15252685  0.56476076    -0.04700
C1343       C  0.97728014  0.16395457  0.57804497    -0.01800
C1344       C  0.97585259  0.18041429  0.61690234     0.03200
C1345       C  0.54700800  0.17735243  0.65583975     0.37900
C1346       C  0.95347819  0.15808305  0.55217428     0.37900
C1347       C  0.95012427  0.19008107  0.63063437     0.36300
C1348       C  0.54823491  0.14239819  0.58019603     0.36300
N1349       N  0.92940998  0.19737566  0.64136997    -0.38500
N1350       N  0.56772618  0.13131708  0.57192972    -0.38500
N1351       N  0.93433345  0.15298280  0.53222877    -0.38000
N1352       N  0.56631517  0.18026452  0.67621465    -0.38000
C1353       C  0.91283546  0.45144206  0.00666977    -0.04700
C1354       C  0.93897139  0.45798307  0.02070755    -0.01800
C1355       C  0.95919219  0.43859733  0.01513296     0.03200
C1356       C  0.95388019  0.41279285  0.99354240    -0.04700
C1357       C  0.92746947  0.40575763  0.48115498    -0.01800
C1358       C  0.90699532  0.42485155  0.48829469     0.03200
C1359       C  0.94489523  0.48352306  0.04501716     0.37900
C1360       C  0.92103264  0.37809177  0.46419063     0.37900
C1361       C  0.87969348  0.41649871  0.47936104     0.36300
C1362       C  0.98470701  0.44414793  0.03623269     0.36300
N1363       N  0.85793389  0.40968966  0.47225299    -0.38500
N1364       N  0.50475359  0.44872867  0.05385005    -0.38500
N1365       N  0.91588097  0.35597897  0.45086140    -0.38000
N1366       N  0.95088133  0.00314743  0.06560992    -0.38000
C1367       C  0.91131172  0.04413552  0.00428608    -0.04700
C1368       C  0.92485936  0.05824641  0.53990865    -0.01800
C1369       C  0.94509777  0.07812724  0.53278823     0.03200
C1370       C  0.95420300  0.08275195  0.49020508    -0.04700
C1371       C  0.94171676  0.06749723  0.95499300    -0.01800
C1372       C  0.91922122  0.05046927  0.96170092     0.03200
C1373       C  0.91938638  0.05196146  0.58472711     0.37900
C1374       C  0.95288072  0.06754412  0.91163571     0.37900
C1375       C  0.90369750  0.04088980  0.92392951     0.36300
C1376       C  0.95656940  0.09305391  0.57048203     0.36300
N1377       N  0.89172830  0.03367808  0.89311203    -0.38500
N1378       N  0.96521941  0.10389905  0.60187331    -0.38500
N1379       N  0.96177139  0.06738900  0.87708066    -0.38000
N1380       N  0.91549165  0.04725937  0.62069847    -0.38000
C1381       C  0.84418584  0.49702772  0.92686789    -0.04700
C1382       C  0.84539016  0.47672963  0.89277772    -0.01800
C1383       C  0.82718187  0.47684503  0.85737616     0.03200
C1384       C  0.80759814  0.49731638  0.85594245    -0.04700
C1385       C  0.80840533  0.01912962  0.88818712    -0.01800
C1386       C  0.82739112  0.01952169  0.92196217     0.03200
C1387       C  0.86594911  0.45646603  0.89289557     0.37900
C1388       C  0.78875789  0.04052575  0.88880444     0.37900
C1389       C  0.83030202  0.04369118  0.95112466     0.36300
C1390       C  0.82898022  0.45612709  0.82219717     0.36300
N1391       N  0.83297074  0.06335546  0.97341446    -0.38500
N1392       N  0.83048844  0.43963591  0.79406492    -0.38500
N1393       N  0.77304777  0.05753040  0.88963506    -0.38000
N1394       N  0.88266126  0.44055120  0.89121952    -0.38000
C1395       C  0.83553193  0.49662869  0.58869914    -0.04700
C1396       C  0.82540729  0.02146179  0.60769486    -0.01800
C1397       C  0.81058614  0.02144659  0.64650254     0.03200
C1398       C  0.80131210  0.49638233  0.66363981    -0.04700
C1399       C  0.80824520  0.47140099  0.64096197    -0.01800
C1400       C  0.82443312  0.47163520  0.60350407     0.03200
C1401       C  0.82666581  0.04698967  0.58509609     0.37900
C1402       C  0.79882560  0.44491072  0.65532963     0.37900
C1403       C  0.82749316  0.44596911  0.57824187     0.36300
C1404       C  0.80511382  0.04787786  0.66814093     0.36300
N1405       N  0.82954686  0.42533999  0.55844090    -0.38500
N1406       N  0.80101800  0.06907024  0.68511529    -0.38500
N1407       N  0.79150672  0.42365932  0.66646660    -0.38000
N1408       N  0.82721479  0.06776181  0.56817173    -0.38000
C1409       C  0.54617515  0.41128497  0.98799852    -0.04700
C1410       C  0.54288296  0.43734977  0.96984747    -0.01800
C1411       C  0.56387694  0.45723506  0.97138081     0.03200
C1412       C  0.58824802  0.45181917  0.99257989    -0.04700
C1413       C  0.59297825  0.42420699  0.50257940    -0.01800
C1414       C  0.57229419  0.40417048  0.50013227     0.03200
C1415       C  0.51797272  0.44469017  0.95011931     0.37900
C1416       C  0.61944944  0.41589746  0.51438975     0.37900
C1417       C  0.57849321  0.37609842  0.50988869     0.36300
C1418       C  0.55966757  0.48285342  0.95028202     0.36300
N1419       N  0.58406681  0.35407230  0.51872245    -0.38500
N1420       N  0.55550230  0.00265116  0.93205947    -0.38500
N1421       N  0.64035552  0.40898978  0.52427675    -0.38000
N1422       N  0.99855487  0.45130706  0.93367517    -0.38000
C1423       C  0.54734108  0.08237913  0.48980051    -0.04700
C1424       C  0.57437098  0.09029705  0.48425119    -0.01800
C1425       C  0.59474822  0.07141011  0.49106955     0.03200
C1426       C  0.58858217  0.04501894  0.00553134    -0.04700
C1427       C  0.56226984  0.03851240  0.01670723    -0.01800
C1428       C  0.54159022  0.05607514  0.00593257     0.03200
C1429       C  0.58162142  0.11820751  0.47359897     0.37900
C1430       C  0.55651471  0.01418953  0.04095260     0.37900
C1431       C  0.51456548  0.04588909  0.00938738     0.36300
C1432       C  0.62223686  0.07949440  0.48494702     0.36300
N1433       N  0.99332150  0.03683362  0.01219651    -0.38500
N1434       N  0.64416742  0.08588317  0.47999103    -0.38500
N1435       N  0.55191261  0.49505400  0.06084015    -0.38000
N1436       N  0.58749451  0.14048814  0.46532196    -0.38000
C1437       C  0.66164303  0.49618514  0.93584346    -0.04700
C1438       C  0.65699088  0.01335627  0.90057315    -0.01800
C1439       C  0.67428269  0.01312840  0.86447914     0.03200
C1440       C  0.69659503  0.49606019  0.86321618    -0.04700
C1441       C  0.70056959  0.47801696  0.89725402    -0.01800
C1442       C  0.68274160  0.47732153  0.93229504     0.03200
C1443       C  0.63441255  0.03121696  0.90038995     0.37900
C1444       C  0.72382297  0.46092872  0.89750304     0.37900
C1445       C  0.68589372  0.45634044  0.96393490     0.36300
C1446       C  0.66868792  0.03003094  0.82794920     0.36300
N1447       N  0.68868788  0.43960931  0.98904981    -0.38500
N1448       N  0.66418434  0.04339352  0.79870327    -0.38500
N1449       N  0.74244447  0.44746405  0.89791890    -0.38000
N1450       N  0.61620996  0.04519575  0.89855106    -0.38000
C1451       C  0.65583890  0.00154574  0.60058982    -0.04700
C1452       C  0.67833055  0.01966209  0.60437144    -0.01800
C1453       C  0.69721511  0.01699208  0.63772183     0.03200
C1454       C  0.69233056  0.49904894  0.67167358    -0.04700
C1455       C  0.66781868  0.48462474  0.67248833    -0.01800
C1456       C  0.64932183  0.48637049  0.63774805     0.03200
C1457       C  0.68186799  0.04191868  0.57484406     0.37900
C1458       C  0.66109195  0.46908950  0.71017576     0.37900
C1459       C  0.62255887  0.47613558  0.64405897     0.36300
C1460       C  0.72236004  0.03191394  0.63561070     0.36300
N1461       N  0.60116546  0.46818646  0.64984914    -0.38500
N1462       N  0.74244361  0.04364222  0.63344660    -0.38500
N1463       N  0.65572568  0.45683266  0.74037164    -0.38000
N1464       N  0.68467364  0.05978078  0.55158424    -0.38000
C1465       C  0.63993658  0.49956848  0.05696227     0.87200
C1466       C  0.62270826  0.52460934  0.05149383    -0.53100
C1467       C  0.60980605  0.52486142  0.51258723     0.10100
C1468       C  0.61562964  0.99982219  0.48131749     0.21000
C1469       C  0.62092240  0.97458243  0.04693902    -0.53800
C1470       C  0.60796779  0.97447029  0.50729012     0.10200
C1471       C  0.65832797  0.49865894  0.01727629    -0.53300
C1472       C  0.64607824  0.49878931  0.47760783     0.10800
H1473       H  0.61984783  0.54022429  0.07730716     0.15300
H1474       H  0.60598939  0.00024000  0.44920975     0.01000
H1475       H  0.61815745  0.95788037  0.06848106     0.15600
H1476       H  0.67971071  0.49774694  0.52050695     0.15400
O1477       O  0.72300076  0.97368238  0.30835941    -0.73700
O1478       O  0.77409625  0.97375249  0.21688600    -0.73800
O1479       O  0.77674123  0.97357685  0.30551811    -0.73800
O1480       O  0.72037860  0.97432597  0.21979182    -0.73900
O1481       O  0.72155964  0.52018934  0.22489419    -0.73800
O1482       O  0.77816042  0.51932405  0.30755846    -0.73800
O1483       O  0.77478208  0.51926594  0.21968053    -0.73800
O1484       O  0.72453228  0.51953909  0.31298982    -0.73800
Ni1485     Ni  0.74850087  0.97217750  0.26253553     1.25400
Ni1486     Ni  0.74979716  0.52115448  0.26648189     1.25400
C1487       C  0.71554097  0.99651546  0.32617047     0.88400
C1488       C  0.78268648  0.99646859  0.20221078     0.88400
C1489       C  0.78663368  0.99656589  0.32097942     0.88400
C1490       C  0.71214205  0.99760886  0.20765332     0.88600
C1491       C  0.85537385  0.99637806  0.04996480     0.87200
C1492       C  0.87569801  0.97297787  0.04908233    -0.53100
C1493       C  0.89142826  0.97196141  0.51320205     0.10100
C1494       C  0.88652743  0.99519987  0.48200573     0.21000
C1495       C  0.87335317  0.52228770  0.04601442    -0.53800
C1496       C  0.89016980  0.52195177  0.51113775     0.10200
C1497       C  0.84078506  0.99333718  0.00640359    -0.53300
C1498       C  0.85657233  0.99334002  0.47063384     0.10800
H1499       H  0.87812792  0.95887366  0.07509915     0.15300
H1500       H  0.89966444  0.99351623  0.45345916     0.01000
H1501       H  0.87323070  0.53921941  0.06959335     0.15600
H1502       H  0.81928045  0.99306609  0.50398597     0.15400
C1503       C  0.00178372  0.63719592  0.44139732     0.87200
C1504       C  0.52505168  0.61715604  0.44390242    -0.53100
C1505       C  0.52533239  0.60170200  0.97994941     0.10100
C1506       C  0.00189577  0.60764424  0.01056037     0.21000
C1507       C  0.97669813  0.61936561  0.44659285    -0.53800
C1508       C  0.97661076  0.60308554  0.98189223     0.10200
C1509       C  0.00458991  0.65410447  0.48471555    -0.53300
C1510       C  0.00362093  0.63892129  0.02070417     0.10800
H1511       H  0.54104175  0.61623687  0.42084628     0.15700
H1512       H  0.00275285  0.59564207  0.04014920     0.01000
H1513       H  0.96010176  0.62012868  0.42403980     0.15600
H1514       H  0.00653782  0.67639156  0.98713723     0.15400
O1515       O  0.52015871  0.77532749  0.19359115    -0.73700
O1516       O  0.52349970  0.72089063  0.28019351    -0.73800
O1517       O  0.52117223  0.71973019  0.19183819    -0.73800
O1518       O  0.52295720  0.77657833  0.28143950    -0.73900
O1519       O  0.97886296  0.77551930  0.28420866    -0.73800
O1520       O  0.97735121  0.71745297  0.19475836    -0.73800
O1521       O  0.97936822  0.71999455  0.28277599    -0.73800
O1522       O  0.97603172  0.77315751  0.19605743    -0.73800
Ni1523     Ni  0.52351495  0.74817609  0.23662977     1.25400
Ni1524     Ni  0.97633575  0.74648256  0.23947660     1.25400
C1525       C  0.99742320  0.78295451  0.18043709     0.88400
C1526       C  0.00178951  0.71196208  0.29632317     0.88400
C1527       C  0.99913338  0.70896002  0.17822063     0.88400
C1528       C  0.00137048  0.78513366  0.29822041     0.88600
C1529       C  0.49754810  0.85742636  0.03670183     0.87200
C1530       C  0.52184777  0.87706053  0.03357808    -0.53100
C1531       C  0.52286544  0.89209533  0.49681342     0.10100
C1532       C  0.49845963  0.88609582  0.46663405     0.21000
C1533       C  0.97376219  0.87555835  0.03204686    -0.53800
C1534       C  0.97389811  0.89080443  0.49625835     0.10200
C1535       C  0.49884108  0.84007573  0.99383393    -0.53300
C1536       C  0.49928777  0.85463675  0.45693933     0.10800
H1537       H  0.53759134  0.87835273  0.05756728     0.15300
H1538       H  0.49842451  0.89756735  0.43658520     0.01000
H1539       H  0.95844545  0.87728429  0.05657680     0.15600
H1540       H  0.49996917  0.81780427  0.49279373     0.15400
C1541       C  0.00281388  0.80532849  0.33610984    -0.04700
C1542       C  0.98615523  0.82831295  0.33891096    -0.01800
C1543       C  0.98597390  0.84569027  0.37716190     0.03200
C1544       C  0.50266128  0.84029321  0.41292738    -0.04700
C1545       C  0.52134958  0.81898930  0.40777110    -0.01800
C1546       C  0.52092260  0.80124856  0.37032088     0.03200
C1547       C  0.96959783  0.83442394  0.30197638     0.37900
C1548       C  0.54130482  0.81490997  0.44092901     0.37900
C1549       C  0.53838683  0.77783282  0.36830232     0.36300
C1550       C  0.96837987  0.86883785  0.37926591     0.36300
N1551       N  0.55228083  0.75919040  0.36681833    -0.38500
N1552       N  0.95456203  0.88753503  0.37987731    -0.38500
N1553       N  0.55720257  0.81080531  0.46697650    -0.38000
N1554       N  0.95656200  0.83934872  0.27232771    -0.38000
C1555       C  0.49502968  0.84006587  0.07732346    -0.04700
C1556       C  0.97818049  0.81619746  0.07595249    -0.01800
C1557       C  0.97934339  0.79740061  0.10928564     0.03200
C1558       C  0.99562272  0.80318102  0.14611775    -0.04700
C1559       C  0.00848723  0.82911343  0.15138849    -0.01800
C1560       C  0.50717655  0.84803523  0.11798218     0.03200
C1561       C  0.95850482  0.81138646  0.04154491     0.37900
C1562       C  0.02170206  0.83695125  0.19231084     0.37900
C1563       C  0.51483461  0.87649270  0.12832745     0.36300
C1564       C  0.96400610  0.77184167  0.10498754     0.36300
N1565       N  0.52071173  0.89922369  0.13703156    -0.38500
N1566       N  0.95157213  0.75162682  0.10110888    -0.38500
N1567       N  0.03209033  0.84319953  0.22504939    -0.38000
N1568       N  0.94281166  0.80746529  0.51421831    -0.38000
C1569       C  0.00013634  0.65516482  0.40099467    -0.04700
C1570       C  0.98502474  0.67960636  0.40275395    -0.01800
C1571       C  0.98700281  0.69865029  0.36974015     0.03200
C1572       C  0.00202201  0.69263978  0.33226499    -0.04700
C1573       C  0.51435079  0.66699671  0.32747654    -0.01800
C1574       C  0.51227988  0.64778020  0.36054472     0.03200
C1575       C  0.96588952  0.68487273  0.43684023     0.37900
C1576       C  0.52813623  0.65976182  0.28753409     0.37900
C1577       C  0.51913055  0.61951973  0.34959235     0.36300
C1578       C  0.97389262  0.72492889  0.37498064     0.36300
N1579       N  0.52448513  0.59700599  0.34022275    -0.38500
N1580       N  0.96351423  0.74586123  0.37926236    -0.38500
N1581       N  0.53922856  0.65383630  0.25584799    -0.38000
N1582       N  0.95033051  0.68982992  0.96325710    -0.38000
C1583       C  0.99917486  0.68712048  0.14175717    -0.04700
C1584       C  0.52304203  0.67365142  0.12968750    -0.01800
C1585       C  0.52395087  0.65623428  0.09174609     0.03200
C1586       C  0.00149874  0.65252714  0.06476009    -0.04700
C1587       C  0.97728013  0.66395452  0.07804464    -0.01800
C1588       C  0.97585282  0.68041423  0.11690231     0.03200
C1589       C  0.54700889  0.67735275  0.15584050     0.37900
C1590       C  0.95347824  0.65808302  0.05217431     0.37900
C1591       C  0.95012429  0.69008101  0.13063452     0.36300
C1592       C  0.54823525  0.64239828  0.08019577     0.36300
N1593       N  0.92941003  0.69737551  0.14137015    -0.38500
N1594       N  0.56772615  0.63131737  0.07192966    -0.38500
N1595       N  0.93433339  0.65298281  0.03222879    -0.38000
N1596       N  0.56631477  0.68026474  0.17621392    -0.38000
C1597       C  0.91283539  0.95144191  0.50667058    -0.04700
C1598       C  0.93897118  0.95798297  0.52070770    -0.01800
C1599       C  0.95919256  0.93859726  0.51513321     0.03200
C1600       C  0.95388010  0.91279260  0.49354234    -0.04700
C1601       C  0.92746937  0.90575731  0.98115493    -0.01800
C1602       C  0.90699542  0.92485159  0.98829493     0.03200
C1603       C  0.94489524  0.98352280  0.54501751     0.37900
C1604       C  0.92103282  0.87809245  0.96419136     0.37900
C1605       C  0.87969322  0.91649845  0.97936132     0.36300
C1606       C  0.98470600  0.94414755  0.53623179     0.36300
N1607       N  0.85793412  0.90968951  0.97225358    -0.38500
N1608       N  0.50475369  0.94872869  0.55385089    -0.38500
N1609       N  0.91588088  0.85597832  0.95086137    -0.38000
N1610       N  0.95088126  0.50314759  0.56561059    -0.38000
C1611       C  0.91131158  0.54413563  0.50428555    -0.04700
C1612       C  0.92485932  0.55824673  0.03990821    -0.01800
C1613       C  0.94509778  0.57812738  0.03278833     0.03200
C1614       C  0.95420306  0.58275220  0.99020507    -0.04700
C1615       C  0.94171683  0.56749740  0.45499272    -0.01800
C1616       C  0.91922119  0.55046944  0.46170122     0.03200
C1617       C  0.91938584  0.55196151  0.08472829     0.37900
C1618       C  0.95288051  0.56754431  0.41163524     0.37900
C1619       C  0.90369752  0.54088998  0.42392977     0.36300
C1620       C  0.95656948  0.59305395  0.07048209     0.36300
N1621       N  0.89172817  0.53367816  0.39311197    -0.38500
N1622       N  0.96521939  0.60389901  0.10187327    -0.38500
N1623       N  0.96177115  0.56738922  0.37708016    -0.38000
N1624       N  0.91549129  0.54725961  0.12069783    -0.38000
C1625       C  0.84418579  0.99702732  0.42686857    -0.04700
C1626       C  0.84538999  0.97672983  0.39277810    -0.01800
C1627       C  0.82718200  0.97684509  0.35737646     0.03200
C1628       C  0.80759825  0.99731628  0.35594260    -0.04700
C1629       C  0.80840536  0.51912934  0.38818712    -0.01800
C1630       C  0.82739102  0.51952169  0.42196243     0.03200
C1631       C  0.86594954  0.95646559  0.39289587     0.37900
C1632       C  0.78875728  0.54052590  0.38880460     0.37900
C1633       C  0.83030187  0.54369130  0.45112489     0.36300
C1634       C  0.82898039  0.95612685  0.32219664     0.36300
N1635       N  0.83297057  0.56335545  0.47341434    -0.38500
N1636       N  0.83048857  0.93963623  0.29406510    -0.38500
N1637       N  0.77304757  0.55752983  0.38963537    -0.38000
N1638       N  0.88266105  0.94055131  0.39121969    -0.38000
C1639       C  0.83553192  0.99662881  0.08869950    -0.04700
C1640       C  0.82540700  0.52146200  0.10769394    -0.01800
C1641       C  0.81058592  0.52144651  0.14650156     0.03200
C1642       C  0.80131227  0.99638227  0.16363997    -0.04700
C1643       C  0.80824541  0.97140114  0.14096214    -0.01800
C1644       C  0.82443340  0.97163488  0.10350388     0.03200
C1645       C  0.82666524  0.54699018  0.08509472     0.37900
C1646       C  0.79882567  0.94491058  0.15532994     0.37900
C1647       C  0.82749337  0.94596980  0.07824288     0.36300
C1648       C  0.80511293  0.54787864  0.16814036     0.36300
N1649       N  0.82954711  0.92533948  0.05844093    -0.38500
N1650       N  0.80101696  0.56907003  0.18511345    -0.38500
N1651       N  0.79150682  0.92365950  0.16646683    -0.38000
N1652       N  0.82721420  0.56776163  0.06817086    -0.38000
C1653       C  0.54617498  0.91128510  0.48799864    -0.04700
C1654       C  0.54288282  0.93734976  0.46984768    -0.01800
C1655       C  0.56387659  0.95723500  0.47138075     0.03200
C1656       C  0.58824782  0.95181933  0.49257912    -0.04700
C1657       C  0.59297837  0.92420729  0.00257957    -0.01800
C1658       C  0.57229425  0.90417063  0.00013224     0.03200
C1659       C  0.51797238  0.94469009  0.45011960     0.37900
C1660       C  0.61944943  0.91589761  0.01438986     0.37900
C1661       C  0.57849302  0.87609900  0.00988829     0.36300
C1662       C  0.55966712  0.98285402  0.45028154     0.36300
N1663       N  0.58406677  0.85407215  0.01872219    -0.38500
N1664       N  0.55550228  0.50265077  0.43205958    -0.38500
N1665       N  0.64035555  0.90898986  0.02427653    -0.38000
N1666       N  0.99855528  0.95130695  0.43367558    -0.38000
C1667       C  0.54734118  0.58237916  0.98980082    -0.04700
C1668       C  0.57437091  0.59029704  0.98425106    -0.01800
C1669       C  0.59474817  0.57140976  0.99106937     0.03200
C1670       C  0.58858208  0.54501906  0.50553153    -0.04700
C1671       C  0.56226968  0.53851238  0.51670730    -0.01800
C1672       C  0.54159006  0.55607535  0.50593231     0.03200
C1673       C  0.58162128  0.61820656  0.97359911     0.37900
C1674       C  0.55651460  0.51418961  0.54095242     0.37900
C1675       C  0.51456516  0.54588909  0.50938748     0.36300
C1676       C  0.62223692  0.57949424  0.98494653     0.36300
N1677       N  0.99332140  0.53683362  0.51219650    -0.38500
N1678       N  0.64416732  0.58588281  0.97999042    -0.38500
N1679       N  0.55191264  0.99505381  0.56084073    -0.38000
N1680       N  0.58749473  0.64048843  0.96532154    -0.38000
C1681       C  0.66164310  0.99618515  0.43584347    -0.04700
C1682       C  0.65699073  0.51335623  0.40057309    -0.01800
C1683       C  0.67428254  0.51312830  0.36447931     0.03200
C1684       C  0.69659502  0.99606047  0.36321603    -0.04700
C1685       C  0.70056936  0.97801715  0.39725386    -0.01800
C1686       C  0.68274130  0.97732173  0.43229505     0.03200
C1687       C  0.63441240  0.53121681  0.40038980     0.37900
C1688       C  0.72382250  0.96092874  0.39750274     0.37900
C1689       C  0.68589339  0.95634098  0.46393425     0.36300
C1690       C  0.66868775  0.53003100  0.32794860     0.36300
N1691       N  0.68868764  0.93960907  0.48904985    -0.38500
N1692       N  0.66418423  0.54339324  0.29870345    -0.38500
N1693       N  0.74244414  0.94746379  0.39791859    -0.38000
N1694       N  0.61620983  0.54519544  0.39855083    -0.38000
C1695       C  0.65583900  0.50154568  0.10058975    -0.04700
C1696       C  0.67833059  0.51966209  0.10437200    -0.01800
C1697       C  0.69721519  0.51699234  0.13772172     0.03200
C1698       C  0.69233081  0.99904901  0.17167349    -0.04700
C1699       C  0.66781865  0.98462456  0.17248828    -0.01800
C1700       C  0.64932241  0.98637082  0.13774791     0.03200
C1701       C  0.68186795  0.54191923  0.07484345     0.37900
C1702       C  0.66109230  0.96908953  0.21017503     0.37900
C1703       C  0.62255797  0.97613538  0.14405950     0.36300
C1704       C  0.72235973  0.53191375  0.13561061     0.36300
N1705       N  0.60116613  0.96818660  0.14984906    -0.38500
N1706       N  0.74244381  0.54364228  0.13344636    -0.38500
N1707       N  0.65572587  0.95683229  0.24037152    -0.38000
N1708       N  0.68467348  0.55978052  0.05158456    -0.38000
C1709       C  0.63993565  0.49956752  0.55696287     0.87200
C1710       C  0.62270802  0.52460865  0.55149466    -0.53100
C1711       C  0.60980615  0.52486143  0.01258672     0.10100
C1712       C  0.61563004  0.99982232  0.98131791     0.21000
C1713       C  0.62092180  0.97458334  0.54693870    -0.53800
C1714       C  0.60796858  0.97447004  0.00729184     0.10200
C1715       C  0.65832799  0.49865858  0.51727802    -0.53300
C1716       C  0.64607861  0.49878908  0.97760694     0.10800
H1717       H  0.61984793  0.54022362  0.57730820     0.15300
H1718       H  0.60599163  0.00023964  0.94921265     0.01000
H1719       H  0.61815518  0.95788520  0.56847777     0.15600
H1720       H  0.67971719  0.49774683  0.02050462     0.15400
O1721       O  0.72300070  0.97368229  0.80835945    -0.73700
O1722       O  0.77409616  0.97375237  0.71688611    -0.73800
O1723       O  0.77674109  0.97357681  0.80551786    -0.73800
O1724       O  0.72037857  0.97432605  0.71979187    -0.73900
O1725       O  0.72155979  0.52018911  0.72489425    -0.73800
O1726       O  0.77816046  0.51932417  0.80755833    -0.73800
O1727       O  0.77478206  0.51926589  0.71968049    -0.73800
O1728       O  0.72453236  0.51953885  0.81298984    -0.73800
Ni1729     Ni  0.74850086  0.97217757  0.76253550     1.25400
Ni1730     Ni  0.74979717  0.52115425  0.76648189     1.25400
C1731       C  0.71554100  0.99651499  0.82617031     0.88400
C1732       C  0.78268645  0.99646872  0.70221072     0.88400
C1733       C  0.78663369  0.99656678  0.82097945     0.88400
C1734       C  0.71214208  0.99760929  0.70765345     0.88600
C1735       C  0.85537196  0.99637816  0.54996875     0.87200
C1736       C  0.87569770  0.97297782  0.54908436    -0.53100
C1737       C  0.89142961  0.97196145  0.01319777     0.10100
C1738       C  0.88652702  0.99519994  0.98200604     0.21000
C1739       C  0.87335350  0.52228749  0.54601377    -0.53800
C1740       C  0.89016938  0.52195212  0.01113812     0.10200
C1741       C  0.84078466  0.99333702  0.50640347    -0.53300
C1742       C  0.85657357  0.99334005  0.97063088     0.10800
H1743       H  0.87812569  0.95886993  0.57511388     0.15300
H1744       H  0.89966789  0.99351507  0.95345168     0.01000
H1745       H  0.87323032  0.53922070  0.56959113     0.15600
H1746       H  0.81928869  0.99306546  0.00398391     0.15400
C1747       C  0.00178358  0.63719569  0.94139623     0.87200
C1748       C  0.52505257  0.61715615  0.94390335    -0.53100
C1749       C  0.52533230  0.60170171  0.47994752     0.10100
C1750       C  0.00189549  0.60764423  0.51055930     0.21000
C1751       C  0.97669804  0.61936491  0.94659374    -0.53800
C1752       C  0.97661039  0.60308578  0.48189201     0.10200
C1753       C  0.00459004  0.65410438  0.98471468    -0.53300
C1754       C  0.00362062  0.63892104  0.52070513     0.10800
H1755       H  0.54103924  0.61623475  0.92085146     0.15700
H1756       H  0.00275189  0.59564155  0.54014964     0.01000
H1757       H  0.96010020  0.62012847  0.92403971     0.15600
H1758       H  0.00653715  0.67639187  0.48714125     0.15400
O1759       O  0.52015850  0.77532747  0.69359110    -0.73700
O1760       O  0.52349994  0.72089059  0.78019372    -0.73800
O1761       O  0.52117202  0.71973005  0.69183816    -0.73800
O1762       O  0.52295736  0.77657827  0.78143953    -0.73900
O1763       O  0.97886299  0.77551923  0.78420876    -0.73800
O1764       O  0.97735126  0.71745289  0.69475845    -0.73800
O1765       O  0.97936792  0.71999447  0.78277629    -0.73800
O1766       O  0.97603167  0.77315742  0.69605744    -0.73800
Ni1767     Ni  0.52351508  0.74817602  0.73662973     1.25400
Ni1768     Ni  0.97633562  0.74648249  0.73947685     1.25400
C1769       C  0.99742313  0.78295434  0.68043717     0.88400
C1770       C  0.00178910  0.71196176  0.79632374     0.88400
C1771       C  0.99913279  0.70895995  0.67822085     0.88400
C1772       C  0.00137083  0.78513360  0.79822045     0.88600
C1773       C  0.49754702  0.85742622  0.53670274     0.87200
C1774       C  0.52184714  0.87706042  0.53357829    -0.53100
C1775       C  0.52286638  0.89209575  0.99681359     0.10100
C1776       C  0.49845978  0.88609594  0.96663470     0.21000
C1777       C  0.97376141  0.87555859  0.53204770    -0.53800
C1778       C  0.97389902  0.89080452  0.99625642     0.10200
C1779       C  0.49884028  0.84007567  0.49383460    -0.53300
C1780       C  0.49928850  0.85463717  0.95693846     0.10800
H1781       H  0.53758770  0.87835115  0.55756307     0.15300
H1782       H  0.49842513  0.89756895  0.93658348     0.01000
H1783       H  0.95843926  0.87728468  0.55658788     0.15600
H1784       H  0.49996979  0.81780436  0.99279138     0.15400
C1785       C  0.00281382  0.80532855  0.83610966    -0.04700
C1786       C  0.98615535  0.82831280  0.83891115    -0.01800
C1787       C  0.98597373  0.84569029  0.87716169     0.03200
C1788       C  0.50266157  0.84029363  0.91292691    -0.04700
C1789       C  0.52134992  0.81898947  0.90777092    -0.01800
C1790       C  0.52092266  0.80124875  0.87032070     0.03200
C1791       C  0.96959741  0.83442396  0.80197570     0.37900
C1792       C  0.54130469  0.81491034  0.94092787     0.37900
C1793       C  0.53838714  0.77783287  0.86830224     0.36300
C1794       C  0.96837993  0.86883762  0.87926595     0.36300
N1795       N  0.55228102  0.75919083  0.86681815    -0.38500
N1796       N  0.95456185  0.88753501  0.87987725    -0.38500
N1797       N  0.55720312  0.81080551  0.96697663    -0.38000
N1798       N  0.95656202  0.83934850  0.77232808    -0.38000
C1799       C  0.49502928  0.84006601  0.57732382    -0.04700
C1800       C  0.97818055  0.81619732  0.57595269    -0.01800
C1801       C  0.97934331  0.79740037  0.60928566     0.03200
C1802       C  0.99562278  0.80318103  0.64611791    -0.04700
C1803       C  0.00848728  0.82911318  0.65138838    -0.01800
C1804       C  0.50717651  0.84803515  0.61798210     0.03200
C1805       C  0.95850458  0.81138632  0.54154458     0.37900
C1806       C  0.02170245  0.83695123  0.69231162     0.37900
C1807       C  0.51483452  0.87649200  0.62832737     0.36300
C1808       C  0.96400627  0.77184207  0.60498769     0.36300
N1809       N  0.52071195  0.89922384  0.63703158    -0.38500
N1810       N  0.95157182  0.75162674  0.60110895    -0.38500
N1811       N  0.03209030  0.84319932  0.72504906    -0.38000
N1812       N  0.94281165  0.80746520  0.01421803    -0.38000
C1813       C  0.00013593  0.65516456  0.90099503    -0.04700
C1814       C  0.98502472  0.67960646  0.90275388    -0.01800
C1815       C  0.98700293  0.69865004  0.86974076     0.03200
C1816       C  0.00202180  0.69263988  0.83226500    -0.04700
C1817       C  0.51435085  0.66699647  0.82747652    -0.01800
C1818       C  0.51228005  0.64778029  0.86054552     0.03200
C1819       C  0.96588926  0.68487293  0.93684097     0.37900
C1820       C  0.52813591  0.65976167  0.78753460     0.37900
C1821       C  0.51913093  0.61951957  0.84959330     0.36300
C1822       C  0.97389248  0.72492969  0.87498118     0.36300
N1823       N  0.52448532  0.59700602  0.84022316    -0.38500
N1824       N  0.96351477  0.74586099  0.87926254    -0.38500
N1825       N  0.53922836  0.65383615  0.75584753    -0.38000
N1826       N  0.95033025  0.68982958  0.46325668    -0.38000
C1827       C  0.99917505  0.68712042  0.64175731    -0.04700
C1828       C  0.52304178  0.67365138  0.62968723    -0.01800
C1829       C  0.52395090  0.65623408  0.59174567     0.03200
C1830       C  0.00149871  0.65252680  0.56476057    -0.04700
C1831       C  0.97727991  0.66395451  0.57804440    -0.01800
C1832       C  0.97585273  0.68041438  0.61690249     0.03200
C1833       C  0.54700911  0.67735275  0.65584065     0.37900
C1834       C  0.95347919  0.65808342  0.55217522     0.37900
C1835       C  0.95012456  0.69008091  0.63063433     0.36300
C1836       C  0.54823457  0.64239844  0.58019580     0.36300
N1837       N  0.92940988  0.69737559  0.64137027    -0.38500
N1838       N  0.56772619  0.63131711  0.57192942    -0.38500
N1839       N  0.93433286  0.65298276  0.53222812    -0.38000
N1840       N  0.56631454  0.68026468  0.67621356    -0.38000
C1841       C  0.91283575  0.95144213  0.00666907    -0.04700
C1842       C  0.93897138  0.95798254  0.02070732    -0.01800
C1843       C  0.95919282  0.93859729  0.01513333     0.03200
C1844       C  0.95388029  0.91279268  0.99354174    -0.04700
C1845       C  0.92746919  0.90575749  0.48115489    -0.01800
C1846       C  0.90699521  0.92485174  0.48829505     0.03200
C1847       C  0.94489548  0.98352361  0.04501823     0.37900
C1848       C  0.92103266  0.87809187  0.46419093     0.37900
C1849       C  0.87969322  0.91649845  0.47936137     0.36300
C1850       C  0.98470616  0.94414762  0.03623180     0.36300
N1851       N  0.85793427  0.90968955  0.47225370    -0.38500
N1852       N  0.50475356  0.94872877  0.05385051    -0.38500
N1853       N  0.91588094  0.85597853  0.45086154    -0.38000
N1854       N  0.95088148  0.50314808  0.06561001    -0.38000
C1855       C  0.91131158  0.54413572  0.00428586    -0.04700
C1856       C  0.92485934  0.55824674  0.53990807    -0.01800
C1857       C  0.94509772  0.57812731  0.53278813     0.03200
C1858       C  0.95420302  0.58275236  0.49020457    -0.04700
C1859       C  0.94171690  0.56749739  0.95499271    -0.01800
C1860       C  0.91922110  0.55046924  0.96170147     0.03200
C1861       C  0.91938569  0.55196147  0.58472812     0.37900
C1862       C  0.95288036  0.56754416  0.91163611     0.37900
C1863       C  0.90369776  0.54088984  0.92393035     0.36300
C1864       C  0.95656961  0.59305426  0.57048284     0.36300
N1865       N  0.89172818  0.53367793  0.89311178    -0.38500
N1866       N  0.96521923  0.60389906  0.60187291    -0.38500
N1867       N  0.96177133  0.56738910  0.87708003    -0.38000
N1868       N  0.91549130  0.54725958  0.62069787    -0.38000
C1869       C  0.84418593  0.99702767  0.92686795    -0.04700
C1870       C  0.84539000  0.97672963  0.89277738    -0.01800
C1871       C  0.82718183  0.97684519  0.85737650     0.03200
C1872       C  0.80759821  0.99731615  0.85594230    -0.04700
C1873       C  0.80840550  0.51912931  0.88818686    -0.01800
C1874       C  0.82739102  0.51952189  0.92196232     0.03200
C1875       C  0.86594973  0.95646532  0.89289549     0.37900
C1876       C  0.78875730  0.54052618  0.88880434     0.37900
C1877       C  0.83030196  0.54369132  0.95112448     0.36300
C1878       C  0.82898023  0.95612690  0.82219672     0.36300
N1879       N  0.83297074  0.56335568  0.97341415    -0.38500
N1880       N  0.83048852  0.93963625  0.79406526    -0.38500
N1881       N  0.77304791  0.55752989  0.88963506    -0.38000
N1882       N  0.88266087  0.94055143  0.89121966    -0.38000
C1883       C  0.83553176  0.99662897  0.58869951    -0.04700
C1884       C  0.82540721  0.52146180  0.60769395    -0.01800
C1885       C  0.81058593  0.52144652  0.64650193     0.03200
C1886       C  0.80131210  0.99638205  0.66364030    -0.04700
C1887       C  0.80824521  0.97140126  0.64096221    -0.01800
C1888       C  0.82443279  0.97163463  0.60350444     0.03200
C1889       C  0.82666543  0.54699020  0.58509491     0.37900
C1890       C  0.79882522  0.94491023  0.65532984     0.37900
C1891       C  0.82749289  0.94596970  0.57824289     0.36300
C1892       C  0.80511332  0.54787808  0.66814037     0.36300
N1893       N  0.82954699  0.92533941  0.55844066    -0.38500
N1894       N  0.80101736  0.56907032  0.68511435    -0.38500
N1895       N  0.79150645  0.92365973  0.66646599    -0.38000
N1896       N  0.82721444  0.56776165  0.56817134    -0.38000
C1897       C  0.54617498  0.91128555  0.98799836    -0.04700
C1898       C  0.54288320  0.93734994  0.96984789    -0.01800
C1899       C  0.56387695  0.95723553  0.97138074     0.03200
C1900       C  0.58824815  0.95181943  0.99257955    -0.04700
C1901       C  0.59297830  0.92420713  0.50257960    -0.01800
C1902       C  0.57229385  0.90417071  0.50013230     0.03200
C1903       C  0.51797264  0.94469045  0.95011973     0.37900
C1904       C  0.61944906  0.91589783  0.51438987     0.37900
C1905       C  0.57849298  0.87609825  0.50988881     0.36300
C1906       C  0.55966791  0.98285313  0.95028273     0.36300
N1907       N  0.58406660  0.85407231  0.51872206    -0.38500
N1908       N  0.55550218  0.50265050  0.93205959    -0.38500
N1909       N  0.64035580  0.90898964  0.52427666    -0.38000
N1910       N  0.99855497  0.95130709  0.93367518    -0.38000
C1911       C  0.54734107  0.58237916  0.48980011    -0.04700
C1912       C  0.57437088  0.59029705  0.48425077    -0.01800
C1913       C  0.59474827  0.57140999  0.49106938     0.03200
C1914       C  0.58858213  0.54501893  0.00553103    -0.04700
C1915       C  0.56226964  0.53851212  0.01670715    -0.01800
C1916       C  0.54159001  0.55607518  0.00593245     0.03200
C1917       C  0.58162131  0.61820742  0.47359853     0.37900
C1918       C  0.55651477  0.51418978  0.04095187     0.37900
C1919       C  0.51456518  0.54588897  0.00938742     0.36300
C1920       C  0.62223674  0.57949432  0.48494653     0.36300
N1921       N  0.99332103  0.53683347  0.01219626    -0.38500
N1922       N  0.64416732  0.58588299  0.47999034    -0.38500
N1923       N  0.55191275  0.99505439  0.06084033    -0.38000
N1924       N  0.58749450  0.64048820  0.46532150    -0.38000
C1925       C  0.66164334  0.99618539  0.93584384    -0.04700
C1926       C  0.65699092  0.51335599  0.90057307    -0.01800
C1927       C  0.67428265  0.51312839  0.86447881     0.03200
C1928       C  0.69659489  0.99606052  0.86321603    -0.04700
C1929       C  0.70056967  0.97801693  0.89725393    -0.01800
C1930       C  0.68274148  0.97732178  0.93229497     0.03200
C1931       C  0.63441244  0.53121670  0.90038982     0.37900
C1932       C  0.72382226  0.96092919  0.89750285     0.37900
C1933       C  0.68589373  0.95634053  0.96393500     0.36300
C1934       C  0.66868807  0.53003029  0.82795014     0.36300
N1935       N  0.68868784  0.93960959  0.98904969    -0.38500
N1936       N  0.66418420  0.54339360  0.79870271    -0.38500
N1937       N  0.74244454  0.94746373  0.89791875    -0.38000
N1938       N  0.61620988  0.54519538  0.89855098    -0.38000
C1939       C  0.65583896  0.50154555  0.60059023    -0.04700
C1940       C  0.67833040  0.51966204  0.60437211    -0.01800
C1941       C  0.69721510  0.51699210  0.63772190     0.03200
C1942       C  0.69233052  0.99904898  0.67167359    -0.04700
C1943       C  0.66781879  0.98462465  0.67248799    -0.01800
C1944       C  0.64932197  0.98637044  0.63774735     0.03200
C1945       C  0.68186787  0.54191918  0.57484387     0.37900
C1946       C  0.66109208  0.96908932  0.71017546     0.37900
C1947       C  0.62255909  0.97613529  0.64405876     0.36300
C1948       C  0.72236025  0.53191391  0.63561060     0.36300
N1949       N  0.60116566  0.96818600  0.64984874    -0.38500
N1950       N  0.74244370  0.54364207  0.63344635    -0.38500
N1951       N  0.65572586  0.95683234  0.74037132    -0.38000
N1952       N  0.68467350  0.55978069  0.55158469    -0.38000
loop_ 
_geom_bond_atom_site_label_1 
_geom_bond_atom_site_label_2 
_geom_bond_distance 
_geom_bond_site_symmetry_2 
_ccdc_geom_bond_type 
C1            C2   1.526   1_565  S
C1            C7   1.540       .  S
C1          C493   1.551       .  S
C1          C231   1.557   1_565  S
C2            H9   1.087       .  S
C2          C247   1.359       .  D
C3          C492   1.552   1_545  S
C3          C246   1.359       .  D
C3          C206   1.489       .  S
C4            C6   1.544       .  S
C4          C491   1.552       .  S
C4          C496   1.545       .  S
C4           H10   1.099       .  S
C5          C489   1.551       .  S
C5           H11   1.079       .  S
C5          C250   1.379       .  D
C6          C249   1.379       .  D
C6          C192   1.521       .  S
C7          H256   1.086       .  S
C7          C252   1.364   1_554  D
C8          C492   1.545       .  S
C8          C251   1.364       .  D
C8          C705   1.514       .  S
H12         C251   1.086       .  S
O13         Ni21   1.918       .  S
O13          C23   1.281       .  A
O14         Ni21   1.920       .  S
O14          C24   1.281       .  A
O15         Ni21   1.935       .  S
O15          C25   1.285       .  A
O16         Ni21   1.935       .  S
O16          C26   1.284       .  A
O17         Ni22   1.907       .  S
O17         C514   1.279   1_545  A
O18         Ni22   1.909       .  S
O18         C513   1.279   1_545  A
O19         Ni22   1.923       .  S
O19         C512   1.283   1_545  A
O20         Ni22   1.929       .  S
O20         C511   1.283   1_545  A
Ni21       Ni510   2.379       .  S
Ni22       Ni509   2.379   1_545  S
C23         O508   1.283       .  A
C23         C220   1.495       .  S
C24         O507   1.283       .  A
C24         C178   1.521       .  S
C25         O506   1.279       .  A
C25         C164   1.502       .  S
C26         O505   1.279       .  A
C26         C234   1.491       .  S
C27          C28   1.548       .  S
C27          C33   1.524       .  S
C27         C519   1.548       .  S
C27         C175   1.563       .  S
C28          H35   1.085       .  S
C28         C273   1.365       .  D
C29          C30   1.538       .  S
C29         C272   1.365       .  D
C29         C133   1.495       .  S
C30          C34   1.550       .  S
C30         C520   1.553       .  S
C30          H36   1.107       .  S
C31         C515   1.548   1_545  S
C31          H37   1.073       .  S
C31         C276   1.374       .  D
C32         C518   1.553   1_545  S
C32         C275   1.374       .  D
C32         C147   1.525       .  S
C33         H282   1.087       .  S
C33         C278   1.365   1_554  D
C34         C277   1.365       .  D
C34         C161   1.500       .  S
H38         C277   1.087       .  S
C39          C45   1.538       .  S
C39          C43   1.534       .  S
C39        C1016   1.546       .  S
C39         C105   1.554       .  S
C40        C1015   1.546       .  S
C40          H47   1.079       .  S
C40         C285   1.368       .  D
C41        C1018   1.543   1_556  S
C41         C284   1.368       .  D
C41         C203   1.508       .  S
C42          C46   1.540       .  S
C42          C44   1.552   1_554  S
C42        C1017   1.543   1_554  S
C42          H48   1.105       .  S
C43          H49   1.086       .  S
C43         C288   1.373       .  D
C44         C287   1.373       .  D
C44         C150   1.518       .  S
C45         H294   1.085       .  S
C45         C290   1.359       .  D
C46         C289   1.359   1_554  D
C46         C122   1.487       .  S
H50         C289   1.085       .  S
O51         Ni59   1.921       .  S
O51        C1037   1.282   1_455  A
O52         Ni59   1.928       .  S
O52        C1038   1.283       .  A
O53         Ni59   1.910       .  S
O53        C1039   1.279   1_455  A
O54         Ni59   1.908       .  S
O54        C1040   1.280       .  A
O55         Ni60   1.929       .  S
O55          C64   1.284       .  A
O56         Ni60   1.928       .  S
O56          C63   1.284       .  A
O57         Ni60   1.902       .  S
O57          C62   1.278       .  A
O58         Ni60   1.904       .  S
O58          C61   1.278       .  A
Ni59      Ni1036   2.385   1_455  S
Ni60      Ni1035   2.385       .  S
C61        O1027   1.282       .  A
C61          C94   1.479       .  S
C62        O1028   1.283       .  A
C62         C108   1.483       .  S
C63        O1029   1.279       .  A
C63         C119   1.510       .  S
C64        O1030   1.280       .  A
C64          C77   1.491       .  S
C65          C66   1.545   1_655  S
C65          C71   1.536   1_554  S
C65        C1045   1.514       .  S
C65          C91   1.544       .  S
C66          H73   1.079       .  S
C66         C311   1.375   1_554  D
C67          C68   1.552   1_455  S
C67         C310   1.375       .  D
C67         C189   1.521       .  S
C68          C72   1.547       .  S
C68        C1046   1.560       .  S
C68          H74   1.101       .  S
C69        C1041   1.515       .  S
C69          H75   1.087       .  S
C69         C314   1.355   1_554  D
C70        C1044   1.560       .  S
C70         C313   1.355       .  D
C70         C136   1.491       .  S
C71         H320   1.085       .  S
C71         C316   1.365       .  D
C72         C315   1.365       .  D
C72          C80   1.508   1_655  S
H76         C315   1.085       .  S
C77          C78   1.413       .  A
C77        C1058   1.412       .  A
C78          C79   1.418       .  A
C78          C83   1.451       .  S
C79        C1056   1.418       .  A
C79          C86   1.448       .  S
C80          C81   1.421       .  A
C80        C1055   1.418   1_455  A
C81          C82   1.408       .  A
C81          C84   1.451       .  S
C82        C1053   1.412       .  A
C82          C85   1.454       .  S
C83          N90   1.157       .  T
C84          N89   1.157       .  T
C85          N87   1.158       .  T
C86          N88   1.157       .  T
C91          C96   1.423   1_655  A
C91        C1068   1.424       .  A
C92          C93   1.406       .  A
C92        C1067   1.424       .  A
C92          C97   1.454       .  S
C93          C94   1.409       .  A
C93         C100   1.451       .  S
C94          C95   1.409       .  A
C95        C1072   1.412       .  A
C95          C98   1.452       .  S
C96        C1071   1.412       .  A
C96          C99   1.450       .  S
C97         N348   1.158       .  T
C98         N103   1.157       .  T
C99         N101   1.158       .  T
C100        N102   1.156       .  T
N104        C341   1.158       .  T
C105        C106   1.425       .  A
C105       C1086   1.427       .  A
C106        C107   1.408       .  A
C106        C111   1.450       .  S
C107        C108   1.409       .  A
C107        C114   1.455       .  S
C108       C1085   1.408       .  A
C109        C110   1.415       .  A
C109       C1084   1.408       .  A
C109        C112   1.451       .  S
C110       C1081   1.427       .  A
C110        C113   1.450       .  S
C111        N362   1.156       .  T
C112        N117   1.157       .  T
C113        N115   1.158       .  T
C114        N116   1.157       .  T
N118        C355   1.156       .  T
C119        C124   1.423       .  A
C119       C1096   1.428       .  A
C120        C121   1.413       .  A
C120       C1095   1.428   1_455  A
C120        C125   1.451       .  S
C121       C1098   1.404       .  A
C121        C128   1.450       .  S
C122        C123   1.410       .  A
C122       C1097   1.404       .  A
C123        C124   1.412       .  A
C123        C126   1.452       .  S
C124        C127   1.451       .  S
C125        N132   1.158       .  T
C126        N131   1.157       .  T
C127        N129   1.158       .  T
C128        N130   1.157       .  T
C133        C134   1.411       .  A
C133        C382   1.412       .  A
C134        C135   1.411       .  A
C134        C139   1.445       .  S
C135        C136   1.413       .  A
C135        C142   1.453       .  S
C136        C381   1.415       .  A
C137        C138   1.416       .  A
C137        C380   1.415       .  A
C137        C140   1.451       .  S
C138        C377   1.412   1_556  A
C138        C141   1.450       .  S
C139        N634   1.155       .  T
C140        N145   1.157       .  T
C141        N143   1.157       .  T
C142       N1120   1.157       .  T
N144       C1118   1.157   1_455  T
N146        C627   1.155   1_545  T
C147        C152   1.418       .  A
C147        C392   1.429       .  A
C148        C149   1.417       .  A
C148        C391   1.429       .  A
C148        C153   1.454       .  S
C149        C150   1.418   1_554  A
C149        C156   1.450       .  S
C150        C395   1.421       .  A
C151        C152   1.414       .  A
C151        C394   1.421       .  A
C151        C154   1.453       .  S
C152        C155   1.450       .  S
C153        N160   1.158       .  T
C154        N159   1.158       .  T
C155        N157   1.157       .  T
C156        N158   1.157       .  T
C161        C162   1.410       .  A
C161        C654   1.411       .  A
C162        C163   1.420       .  A
C162        C167   1.446       .  S
C163        C164   1.420       .  A
C163        C170   1.450       .  S
C164        C653   1.419       .  A
C165        C166   1.407       .  A
C165        C652   1.419   1_545  A
C165        C168   1.452       .  S
C166        C649   1.411   1_545  A
C166        C169   1.451       .  S
C167        N174   1.157       .  T
C168        N173   1.157       .  T
C169        N171   1.156       .  T
C170        N172   1.157       .  T
C175        C180   1.423       .  A
C175        C664   1.424       .  A
C176        C177   1.415       .  A
C176        C663   1.424   1_545  A
C176        C181   1.451       .  S
C177        C666   1.422   1_545  A
C177        C184   1.454       .  S
C178        C179   1.425       .  A
C178        C665   1.422       .  A
C179        C180   1.419       .  A
C179        C182   1.453       .  S
C180        C183   1.452       .  S
C181        N188   1.157       .  T
C182        N187   1.158       .  T
C183        N185   1.157       .  T
C184        N186   1.158       .  T
C189        C190   1.420       .  A
C189        C438   1.422       .  A
C190        C191   1.419       .  A
C190        C195   1.451       .  S
C191        C192   1.423       .  A
C191        C198   1.449       .  S
C192        C437   1.416       .  A
C193        C194   1.413       .  A
C193        C436   1.416   1_554  A
C193        C196   1.453       .  S
C194        C433   1.422   1_554  A
C194        C197   1.451       .  S
C195       N1178   1.158   1_455  T
C196        N201   1.157       .  T
C197        N199   1.157       .  T
C198        N688   1.158       .  T
N200        C686   1.158   1_545  T
N202       C1171   1.158       .  T
C203        C204   1.424       .  A
C203        C452   1.418   1_556  A
C204        C205   1.414       .  A
C204        C209   1.451       .  S
C205        C450   1.407   1_556  A
C205        C212   1.451       .  S
C206        C207   1.409       .  A
C206        C449   1.407       .  A
C207        C208   1.410       .  A
C207        C210   1.452       .  S
C208        C447   1.418       .  A
C208        C211   1.449       .  S
C209        N216   1.157       .  T
C210        N703   1.157   1_545  T
C211       N1189   1.157   1_455  T
C212        N214   1.157       .  T
N213       C1187   1.157       .  T
N215        C698   1.157       .  T
C217        C496   1.514       .  S
C217        C222   1.422       .  A
C217        C706   1.420       .  A
C218        C219   1.418       .  A
C218        C705   1.420   1_545  A
C218        C223   1.448       .  S
C219        C708   1.413   1_545  A
C219        C226   1.452       .  S
C220        C221   1.412       .  A
C220        C707   1.413       .  A
C221        C222   1.412       .  A
C221        C224   1.453       .  S
C222        C225   1.452       .  S
C223        N230   1.157       .  T
C224        N229   1.157       .  T
C225        N227   1.157       .  T
C226        N228   1.157       .  T
C231        C232   1.424       .  A
C231        C724   1.426   1_545  A
C232        C233   1.407       .  A
C232        C237   1.454       .  S
C233        C722   1.411   1_545  A
C233        C240   1.453       .  S
C234        C235   1.411       .  A
C234        C721   1.411       .  A
C235        C236   1.420       .  A
C235        C238   1.451       .  S
C236        C719   1.426       .  A
C236        C239   1.448       .  S
C237        N244   1.157       .  T
C238        N243   1.157       .  T
C239        N241   1.158       .  T
C240        N242   1.157       .  T
C245        C246   1.526   1_565  S
C245        C251   1.540       .  S
C245        C737   1.551       .  S
C245        C475   1.557   1_565  S
C246        H253   1.087       .  S
C247        C736   1.552   1_544  S
C247        C450   1.489       .  S
C248        C735   1.552   1_556  S
C248        C740   1.545       .  S
C248        C250   1.544   1_556  S
C248        H254   1.099       .  S
C249        C733   1.551       .  S
C249        H255   1.079       .  S
C250        C436   1.521   1_554  S
C252        C736   1.545       .  S
C252        C949   1.514       .  S
O257       Ni265   1.918       .  S
O257        C267   1.281       .  A
O258       Ni265   1.920       .  S
O258        C268   1.281       .  A
O259       Ni265   1.935       .  S
O259        C269   1.285       .  A
O260       Ni265   1.935       .  S
O260        C270   1.284       .  A
O261       Ni266   1.907       .  S
O261        C758   1.279   1_545  A
O262       Ni266   1.909       .  S
O262        C757   1.279   1_545  A
O263       Ni266   1.923       .  S
O263        C756   1.283   1_545  A
O264       Ni266   1.929       .  S
O264        C755   1.283   1_545  A
Ni265      Ni754   2.379       .  S
Ni266      Ni753   2.379   1_545  S
C267        O752   1.283       .  A
C267        C464   1.495       .  S
C268        O751   1.283       .  A
C268        C422   1.521       .  S
C269        O750   1.279       .  A
C269        C408   1.502       .  S
C270        O749   1.279       .  A
C270        C478   1.491       .  S
C271        C272   1.548       .  S
C271        C277   1.524       .  S
C271        C763   1.548       .  S
C271        C419   1.563       .  S
C272        H279   1.085       .  S
C273        C274   1.538   1_554  S
C273        C377   1.495       .  S
C274        C278   1.550       .  S
C274        C764   1.553   1_556  S
C274        H280   1.107       .  S
C275        C759   1.548   1_545  S
C275        H281   1.073       .  S
C276        C762   1.553   1_544  S
C276        C391   1.525       .  S
C278        C405   1.500       .  S
C283       C1260   1.546       .  S
C283        C289   1.538       .  S
C283        C287   1.534       .  S
C283        C349   1.554       .  S
C284       C1259   1.546       .  S
C284        H291   1.079       .  S
C285       C1262   1.543       .  S
C285        C447   1.508       .  S
C286       C1261   1.543       .  S
C286        C290   1.539       .  S
C286        C288   1.552       .  S
C286        H292   1.105       .  S
C287        H293   1.086       .  S
C288        C394   1.518       .  S
C290        C366   1.487       .  S
O295       Ni303   1.921       .  S
O295       C1281   1.282   1_455  A
O296       Ni303   1.928       .  S
O296       C1282   1.283       .  A
O297       Ni303   1.910       .  S
O297       C1283   1.279   1_455  A
O298       Ni303   1.908       .  S
O298       C1284   1.280       .  A
O299       Ni304   1.929       .  S
O299        C308   1.284       .  A
O300       Ni304   1.928       .  S
O300        C307   1.284       .  A
O301       Ni304   1.902       .  S
O301        C306   1.278       .  A
O302       Ni304   1.904       .  S
O302        C305   1.278       .  A
Ni303     Ni1280   2.385   1_455  S
Ni304     Ni1279   2.385       .  S
C305       O1271   1.282       .  A
C305        C338   1.479       .  S
C306       O1272   1.283       .  A
C306        C352   1.483       .  S
C307       O1273   1.279       .  A
C307        C363   1.510       .  S
C308       O1274   1.280       .  A
C308        C321   1.491       .  S
C309        C310   1.545   1_655  S
C309        C315   1.536       .  S
C309       C1289   1.515       .  S
C309        C335   1.544       .  S
C310        H317   1.079       .  S
C311        C312   1.552   1_455  S
C311        C433   1.521       .  S
C312        C316   1.547       .  S
C312       C1290   1.560       .  S
C312        H318   1.101       .  S
C313       C1285   1.515       .  S
C313        H319   1.088       .  S
C314       C1288   1.560       .  S
C314        C380   1.491       .  S
C316        C324   1.508   1_655  S
C321        C322   1.413       .  A
C321       C1302   1.412       .  A
C322        C323   1.418       .  A
C322        C327   1.451       .  S
C323       C1300   1.418       .  A
C323        C330   1.448       .  S
C324       C1299   1.418   1_455  A
C324        C325   1.421       .  A
C325        C326   1.408       .  A
C325        C328   1.451       .  S
C326       C1297   1.412       .  A
C326        C329   1.454       .  S
C327        N334   1.157       .  T
C328        N333   1.157       .  T
C329        N331   1.158       .  T
C330        N332   1.157       .  T
C335       C1312   1.424       .  A
C335        C340   1.423   1_655  A
C336       C1311   1.424       .  A
C336        C337   1.406       .  A
C336        C341   1.454       .  S
C337        C338   1.409       .  A
C337        C344   1.451       .  S
C338        C339   1.409       .  A
C339       C1316   1.412       .  A
C339        C342   1.452       .  S
C340       C1315   1.412       .  A
C340        C343   1.450       .  S
C342        N347   1.157       .  T
C343        N345   1.158       .  T
C344        N346   1.156       .  T
C349        C350   1.425       .  A
C349       C1330   1.427       .  A
C350        C351   1.408       .  A
C350        C355   1.450       .  S
C351        C352   1.409       .  A
C351        C358   1.455       .  S
C352       C1329   1.408       .  A
C353       C1328   1.408       .  A
C353        C354   1.415       .  A
C353        C356   1.451       .  S
C354       C1325   1.427       .  A
C354        C357   1.450       .  S
C356        N361   1.157       .  T
C357        N359   1.158       .  T
C358        N360   1.157       .  T
C363       C1340   1.428       .  A
C363        C368   1.423       .  A
C364       C1339   1.428   1_455  A
C364        C365   1.413       .  A
C364        C369   1.452       .  S
C365       C1342   1.404       .  A
C365        C372   1.450       .  S
C366       C1341   1.404       .  A
C366        C367   1.410       .  A
C367        C368   1.412       .  A
C367        C370   1.452       .  S
C368        C371   1.451       .  S
C369        N376   1.158       .  T
C370        N375   1.157       .  T
C371        N373   1.158       .  T
C372        N374   1.157       .  T
C377        C378   1.411       .  A
C378        C379   1.411       .  A
C378        C383   1.445       .  S
C379        C380   1.413   1_554  A
C379        C386   1.453       .  S
C381        C382   1.416       .  A
C381        C384   1.451       .  S
C382        C385   1.450       .  S
C383        N878   1.155       .  T
C384        N389   1.157       .  T
C385        N387   1.157       .  T
C386       N1364   1.157       .  T
N388       C1362   1.157   1_455  T
N390        C871   1.155   1_545  T
C391        C396   1.418   1_554  A
C392        C393   1.417       .  A
C392        C397   1.454       .  S
C393        C394   1.418       .  A
C393        C400   1.450       .  S
C395        C396   1.414       .  A
C395        C398   1.453       .  S
C396        C399   1.450       .  S
C397        N404   1.158       .  T
C398        N403   1.158       .  T
C399        N401   1.157       .  T
C400        N402   1.157       .  T
C405        C406   1.410       .  A
C405        C898   1.411       .  A
C406        C407   1.420       .  A
C406        C411   1.446       .  S
C407        C408   1.420       .  A
C407        C414   1.450       .  S
C408        C897   1.419       .  A
C409        C896   1.419   1_545  A
C409        C410   1.407       .  A
C409        C412   1.452       .  S
C410        C893   1.411   1_545  A
C410        C413   1.451       .  S
C411        N418   1.157       .  T
C412        N417   1.157       .  T
C413        N415   1.156       .  T
C414        N416   1.157       .  T
C419        C908   1.424       .  A
C419        C424   1.423       .  A
C420        C907   1.424   1_545  A
C420        C421   1.415       .  A
C420        C425   1.451       .  S
C421        C910   1.422   1_545  A
C421        C428   1.454       .  S
C422        C909   1.422       .  A
C422        C423   1.425       .  A
C423        C424   1.419       .  A
C423        C426   1.453       .  S
C424        C427   1.452       .  S
C425        N432   1.157       .  T
C426        N431   1.158       .  T
C427        N429   1.157       .  T
C428        N430   1.158       .  T
C433        C434   1.420       .  A
C434        C435   1.419       .  A
C434        C439   1.451       .  S
C435        C436   1.423       .  A
C435        C442   1.449       .  S
C437        C438   1.413       .  A
C437        C440   1.453       .  S
C438        C441   1.451       .  S
C439       N1422   1.158   1_455  T
C440        N445   1.157       .  T
C441        N443   1.157       .  T
C442        N932   1.158       .  T
N444        C930   1.158   1_545  T
N446       C1415   1.158       .  T
C447        C448   1.424       .  A
C448        C449   1.414       .  A
C448        C453   1.451       .  S
C449        C456   1.451       .  S
C450        C451   1.409       .  A
C451        C452   1.410       .  A
C451        C454   1.452       .  S
C452        C455   1.449       .  S
C453        N460   1.157       .  T
C454        N947   1.157   1_545  T
C455       N1433   1.157   1_455  T
C456        N458   1.157       .  T
N457       C1431   1.157       .  T
N459        C942   1.157       .  T
C461        C740   1.514       .  S
C461        C950   1.420       .  A
C461        C466   1.422       .  A
C462        C949   1.420   1_545  A
C462        C463   1.418       .  A
C462        C467   1.448       .  S
C463        C952   1.413   1_545  A
C463        C470   1.452       .  S
C464        C951   1.413       .  A
C464        C465   1.412       .  A
C465        C466   1.412       .  A
C465        C468   1.453       .  S
C466        C469   1.452       .  S
C467        N474   1.157       .  T
C468        N473   1.158       .  T
C469        N471   1.157       .  T
C470        N472   1.157       .  T
C475        C476   1.424       .  A
C475        C968   1.426   1_545  A
C476        C477   1.407       .  A
C476        C481   1.454       .  S
C477        C966   1.411   1_545  A
C477        C484   1.453       .  S
C478        C965   1.411       .  A
C478        C479   1.411       .  A
C479        C480   1.420       .  A
C479        C482   1.451       .  S
C480        C963   1.426       .  A
C480        C483   1.448       .  S
C481        N488   1.157       .  T
C482        N487   1.157       .  T
C483        N485   1.158       .  T
C484        N486   1.157       .  T
C489        C490   1.526       .  S
C489        C495   1.540       .  S
C489        C719   1.557       .  S
C490        H497   1.087       .  S
C490        C735   1.359       .  D
C491        C734   1.359       .  D
C491        C694   1.489       .  S
C492        C494   1.544       .  S
C492        H498   1.099   1_565  S
C493        H499   1.079       .  S
C493        C738   1.379       .  D
C494        C737   1.379       .  D
C494        C680   1.521       .  S
C495        H744   1.086       .  S
C495        C740   1.364   1_554  D
C496        C739   1.364       .  D
H500        C739   1.086       .  S
O501       Ni509   1.918       .  S
O501        C511   1.281       .  A
O502       Ni509   1.920       .  S
O502        C512   1.281       .  A
O503       Ni509   1.935       .  S
O503        C513   1.285       .  A
O504       Ni509   1.935       .  S
O504        C514   1.284       .  A
O505       Ni510   1.907       .  S
O506       Ni510   1.909       .  S
O507       Ni510   1.923       .  S
O508       Ni510   1.929       .  S
C511        C708   1.495       .  S
C512        C666   1.521       .  S
C513        C652   1.502       .  S
C514        C722   1.491       .  S
C515        C516   1.548       .  S
C515        C521   1.524       .  S
C515        C663   1.563       .  S
C516        H523   1.085       .  S
C516        C761   1.366       .  D
C517        C518   1.538       .  S
C517        C760   1.365       .  D
C517        C621   1.495       .  S
C518        C522   1.550       .  S
C518        H524   1.107       .  S
C519        H525   1.073       .  S
C519        C764   1.374       .  D
C520        C763   1.374       .  D
C520        C635   1.525       .  S
C521        H770   1.087       .  S
C521        C766   1.365   1_554  D
C522        C765   1.365       .  D
C522        C649   1.500       .  S
H526        C765   1.088       .  S
C527       C1504   1.546       .  S
C527        C533   1.538       .  S
C527        C531   1.534       .  S
C527        C593   1.554       .  S
C528       C1503   1.546       .  S
C528        H535   1.080       .  S
C528        C773   1.368       .  D
C529       C1506   1.543   1_556  S
C529        C772   1.368       .  D
C529        C691   1.508       .  S
C530       C1505   1.543   1_554  S
C530        C534   1.540       .  S
C530        C532   1.552   1_554  S
C530        H536   1.105       .  S
C531        H537   1.086       .  S
C531        C776   1.373       .  D
C532        C775   1.373       .  D
C532        C638   1.518       .  S
C533        H782   1.085       .  S
C533        C778   1.359       .  D
C534        C777   1.359   1_554  D
C534        C610   1.487       .  S
H538        C777   1.086       .  S
O539       Ni547   1.921       .  S
O539       C1525   1.282   1_455  A
O540       Ni547   1.928       .  S
O540       C1526   1.283       .  A
O541       Ni547   1.910       .  S
O541       C1527   1.279   1_455  A
O542       Ni547   1.908       .  S
O542       C1528   1.280       .  A
O543       Ni548   1.929       .  S
O543        C552   1.284       .  A
O544       Ni548   1.928       .  S
O544        C551   1.284       .  A
O545       Ni548   1.902       .  S
O545        C550   1.278       .  A
O546       Ni548   1.904       .  S
O546        C549   1.278       .  A
Ni547     Ni1524   2.385   1_455  S
Ni548     Ni1523   2.385       .  S
C549       O1515   1.282       .  A
C549        C582   1.479       .  S
C550       O1516   1.283       .  A
C550        C596   1.483       .  S
C551       O1517   1.279       .  A
C551        C607   1.510       .  S
C552       O1518   1.280       .  A
C552        C565   1.491       .  S
C553        C554   1.545   1_655  S
C553        C559   1.536   1_554  S
C553       C1533   1.515       .  S
C553        C579   1.544       .  S
C554        H561   1.079       .  S
C554        C799   1.375   1_554  D
C555        C556   1.552   1_455  S
C555        C798   1.375       .  D
C555        C677   1.521       .  S
C556        C560   1.547       .  S
C556       C1534   1.560       .  S
C556        H562   1.101       .  S
C557       C1529   1.515       .  S
C557        H563   1.087       .  S
C557        C802   1.355   1_554  D
C558       C1532   1.560       .  S
C558        C801   1.355       .  D
C558        C624   1.491       .  S
C559        H808   1.085       .  S
C559        C804   1.365       .  D
C560        C803   1.365       .  D
C560        C568   1.508   1_655  S
H564        C803   1.085       .  S
C565        C566   1.413       .  A
C565       C1546   1.412       .  A
C566        C567   1.418       .  A
C566        C571   1.451       .  S
C567       C1544   1.418       .  A
C567        C574   1.448       .  S
C568       C1543   1.418   1_455  A
C568        C569   1.421       .  A
C569        C570   1.408       .  A
C569        C572   1.451       .  S
C570       C1541   1.412       .  A
C570        C573   1.454       .  S
C571        N578   1.157       .  T
C572        N577   1.157       .  T
C573        N575   1.157       .  T
C574        N576   1.157       .  T
C579       C1556   1.424       .  A
C579        C584   1.423   1_655  A
C580       C1555   1.424       .  A
C580        C581   1.406       .  A
C580        C585   1.454       .  S
C581        C582   1.409       .  A
C581        C588   1.451       .  S
C582        C583   1.409       .  A
C583       C1560   1.412       .  A
C583        C586   1.452       .  S
C584       C1559   1.412       .  A
C584        C587   1.450       .  S
C585        N836   1.158       .  T
C586        N591   1.157       .  T
C587        N589   1.158       .  T
C588        N590   1.156       .  T
N592        C829   1.157       .  T
C593        C594   1.425       .  A
C593       C1574   1.427       .  A
C594        C595   1.408       .  A
C594        C599   1.450       .  S
C595        C596   1.409       .  A
C595        C602   1.455       .  S
C596       C1573   1.408       .  A
C597       C1572   1.408       .  A
C597        C598   1.415       .  A
C597        C600   1.451       .  S
C598       C1569   1.427       .  A
C598        C601   1.450       .  S
C599        N850   1.156       .  T
C600        N605   1.157       .  T
C601        N603   1.158       .  T
C602        N604   1.157       .  T
N606        C843   1.156       .  T
C607       C1584   1.428       .  A
C607        C612   1.423       .  A
C608       C1583   1.428   1_455  A
C608        C609   1.413       .  A
C608        C613   1.451       .  S
C609       C1586   1.404       .  A
C609        C616   1.450       .  S
C610       C1585   1.404       .  A
C610        C611   1.410       .  A
C611        C612   1.412       .  A
C611        C614   1.452       .  S
C612        C615   1.451       .  S
C613        N620   1.158       .  T
C614        N619   1.157       .  T
C615        N617   1.158       .  T
C616        N618   1.157       .  T
C621        C622   1.411       .  A
C621        C870   1.412       .  A
C622        C623   1.411       .  A
C622        C627   1.445       .  S
C623        C624   1.413       .  A
C623        C630   1.453       .  S
C624        C869   1.415       .  A
C625        C868   1.415       .  A
C625        C626   1.416       .  A
C625        C628   1.451       .  S
C626        C865   1.412   1_556  A
C626        C629   1.450       .  S
C628        N633   1.157       .  T
C629        N631   1.157       .  T
C630       N1608   1.157       .  T
N632       C1606   1.157   1_455  T
C635        C880   1.429       .  A
C635        C640   1.418       .  A
C636        C879   1.429       .  A
C636        C637   1.417       .  A
C636        C641   1.454       .  S
C637        C638   1.418   1_554  A
C637        C644   1.450       .  S
C638        C883   1.421       .  A
C639        C882   1.421       .  A
C639        C640   1.414       .  A
C639        C642   1.453       .  S
C640        C643   1.450       .  S
C641        N648   1.158       .  T
C642        N647   1.158       .  T
C643        N645   1.157       .  T
C644        N646   1.157       .  T
C649        C650   1.410       .  A
C650        C651   1.420       .  A
C650        C655   1.446       .  S
C651        C652   1.420       .  A
C651        C658   1.450       .  S
C653        C654   1.407       .  A
C653        C656   1.452       .  S
C654        C657   1.451       .  S
C655        N662   1.157       .  T
C656        N661   1.158       .  T
C657        N659   1.156       .  T
C658        N660   1.157       .  T
C663        C668   1.423       .  A
C664        C665   1.415       .  A
C664        C669   1.451       .  S
C665        C672   1.454       .  S
C666        C667   1.425       .  A
C667        C668   1.419       .  A
C667        C670   1.453       .  S
C668        C671   1.452       .  S
C669        N676   1.157       .  T
C670        N675   1.158       .  T
C671        N673   1.157       .  T
C672        N674   1.158       .  T
C677        C678   1.420       .  A
C677        C926   1.422       .  A
C678        C679   1.419       .  A
C678        C683   1.451       .  S
C679        C680   1.423       .  A
C679        C686   1.449       .  S
C680        C925   1.416       .  A
C681        C924   1.416   1_554  A
C681        C682   1.413       .  A
C681        C684   1.453       .  S
C682        C921   1.422   1_554  A
C682        C685   1.451       .  S
C683       N1666   1.158   1_455  T
C684        N689   1.157       .  T
C685        N687   1.157       .  T
N690       C1659   1.158       .  T
C691        C692   1.424       .  A
C691        C940   1.418   1_556  A
C692        C693   1.414       .  A
C692        C697   1.451       .  S
C693        C938   1.407   1_556  A
C693        C700   1.451       .  S
C694        C937   1.407       .  A
C694        C695   1.409       .  A
C695        C696   1.410       .  A
C695        C698   1.452       .  S
C696        C935   1.418       .  A
C696        C699   1.449       .  S
C697        N704   1.158       .  T
C699       N1677   1.157   1_455  T
C700        N702   1.157       .  T
N701       C1675   1.157       .  T
C705        C710   1.422       .  A
C706        C707   1.418       .  A
C706        C711   1.448       .  S
C707        C714   1.452       .  S
C708        C709   1.412       .  A
C709        C710   1.412       .  A
C709        C712   1.453       .  S
C710        C713   1.452       .  S
C711        N718   1.157       .  T
C712        N717   1.157       .  T
C713        N715   1.157       .  T
C714        N716   1.157       .  T
C719        C720   1.424       .  A
C720        C721   1.407       .  A
C720        C725   1.454       .  S
C721        C728   1.453       .  S
C722        C723   1.411       .  A
C723        C724   1.420       .  A
C723        C726   1.451       .  S
C724        C727   1.448       .  S
C725        N732   1.157       .  T
C726        N731   1.157       .  T
C727        N729   1.158       .  T
C728        N730   1.157       .  T
C733        C734   1.526       .  S
C733        C739   1.540       .  S
C733        C963   1.557       .  S
C734        H741   1.087       .  S
C735        C938   1.489       .  S
C736        C738   1.544   1_556  S
C736        H742   1.099   1_565  S
C737        H743   1.079       .  S
C738        C924   1.521   1_554  S
O745       Ni753   1.918       .  S
O745        C755   1.281       .  A
O746       Ni753   1.920       .  S
O746        C756   1.281       .  A
O747       Ni753   1.935       .  S
O747        C757   1.285       .  A
O748       Ni753   1.935       .  S
O748        C758   1.285       .  A
O749       Ni754   1.907       .  S
O750       Ni754   1.909       .  S
O751       Ni754   1.923       .  S
O752       Ni754   1.929       .  S
C755        C952   1.495       .  S
C756        C910   1.521       .  S
C757        C896   1.502       .  S
C758        C966   1.491       .  S
C759        C760   1.548       .  S
C759        C765   1.524       .  S
C759        C907   1.563       .  S
C760        H767   1.086       .  S
C761        C762   1.538   1_554  S
C761        C865   1.495       .  S
C762        C766   1.550       .  S
C762        H768   1.107       .  S
C763        H769   1.073       .  S
C764        C879   1.525       .  S
C766        C893   1.500       .  S
C771       C1748   1.546       .  S
C771        C777   1.538       .  S
C771        C775   1.534       .  S
C771        C837   1.554       .  S
C772       C1747   1.546       .  S
C772        H779   1.080       .  S
C773       C1750   1.543       .  S
C773        C935   1.508       .  S
C774       C1749   1.543       .  S
C774        C778   1.539       .  S
C774        C776   1.552       .  S
C774        H780   1.105       .  S
C775        H781   1.086       .  S
C776        C882   1.518       .  S
C778        C854   1.487       .  S
O783       Ni791   1.921       .  S
O783       C1769   1.282   1_455  A
O784       Ni791   1.928       .  S
O784       C1770   1.283       .  A
O785       Ni791   1.910       .  S
O785       C1771   1.279   1_455  A
O786       Ni791   1.908       .  S
O786       C1772   1.280       .  A
O787       Ni792   1.929       .  S
O787        C796   1.284       .  A
O788       Ni792   1.928       .  S
O788        C795   1.284       .  A
O789       Ni792   1.902       .  S
O789        C794   1.278       .  A
O790       Ni792   1.904       .  S
O790        C793   1.278       .  A
Ni791     Ni1768   2.385   1_455  S
Ni792     Ni1767   2.385       .  S
C793       O1759   1.282       .  A
C793        C826   1.479       .  S
C794       O1760   1.283       .  A
C794        C840   1.483       .  S
C795       O1761   1.279       .  A
C795        C851   1.510       .  S
C796       O1762   1.280       .  A
C796        C809   1.491       .  S
C797        C798   1.545   1_655  S
C797        C803   1.536       .  S
C797       C1777   1.515       .  S
C797        C823   1.544       .  S
C798        H805   1.079       .  S
C799        C800   1.552   1_455  S
C799        C921   1.521       .  S
C800        C804   1.547       .  S
C800       C1778   1.560       .  S
C800        H806   1.101       .  S
C801       C1773   1.515       .  S
C801        H807   1.087       .  S
C802       C1776   1.560       .  S
C802        C868   1.491       .  S
C804        C812   1.508   1_655  S
C809        C810   1.413       .  A
C809       C1790   1.412       .  A
C810        C811   1.418       .  A
C810        C815   1.451       .  S
C811       C1788   1.418       .  A
C811        C818   1.448       .  S
C812       C1787   1.418   1_455  A
C812        C813   1.421       .  A
C813        C814   1.408       .  A
C813        C816   1.451       .  S
C814       C1785   1.412       .  A
C814        C817   1.454       .  S
C815        N822   1.157       .  T
C816        N821   1.156       .  T
C817        N819   1.157       .  T
C818        N820   1.157       .  T
C823       C1800   1.424       .  A
C823        C828   1.423   1_655  A
C824       C1799   1.424       .  A
C824        C825   1.406       .  A
C824        C829   1.454       .  S
C825        C826   1.409       .  A
C825        C832   1.451       .  S
C826        C827   1.409       .  A
C827       C1804   1.412       .  A
C827        C830   1.452       .  S
C828       C1803   1.412       .  A
C828        C831   1.450       .  S
C830        N835   1.157       .  T
C831        N833   1.158       .  T
C832        N834   1.156       .  T
C837        C838   1.425       .  A
C837       C1818   1.427       .  A
C838        C839   1.408       .  A
C838        C843   1.450       .  S
C839        C840   1.409       .  A
C839        C846   1.455       .  S
C840       C1817   1.408       .  A
C841       C1816   1.408       .  A
C841        C842   1.415       .  A
C841        C844   1.451       .  S
C842       C1813   1.427       .  A
C842        C845   1.450       .  S
C844        N849   1.157       .  T
C845        N847   1.158       .  T
C846        N848   1.158       .  T
C851       C1828   1.428       .  A
C851        C856   1.423       .  A
C852       C1827   1.428   1_455  A
C852        C853   1.413       .  A
C852        C857   1.451       .  S
C853       C1830   1.404       .  A
C853        C860   1.450       .  S
C854       C1829   1.404       .  A
C854        C855   1.410       .  A
C855        C856   1.412       .  A
C855        C858   1.452       .  S
C856        C859   1.451       .  S
C857        N864   1.158       .  T
C858        N863   1.157       .  T
C859        N861   1.158       .  T
C860        N862   1.157       .  T
C865        C866   1.411       .  A
C866        C867   1.411       .  A
C866        C871   1.445       .  S
C867        C868   1.413   1_554  A
C867        C874   1.453       .  S
C869        C870   1.416       .  A
C869        C872   1.451       .  S
C870        C873   1.450       .  S
C872        N877   1.157       .  T
C873        N875   1.157       .  T
C874       N1852   1.157       .  T
N876       C1850   1.157   1_455  T
C879        C884   1.418   1_554  A
C880        C881   1.417       .  A
C880        C885   1.454       .  S
C881        C882   1.418       .  A
C881        C888   1.450       .  S
C883        C884   1.414       .  A
C883        C886   1.453       .  S
C884        C887   1.450       .  S
C885        N892   1.158       .  T
C886        N891   1.158       .  T
C887        N889   1.157       .  T
C888        N890   1.157       .  T
C893        C894   1.410       .  A
C894        C895   1.420       .  A
C894        C899   1.446       .  S
C895        C896   1.420       .  A
C895        C902   1.450       .  S
C897        C898   1.407       .  A
C897        C900   1.452       .  S
C898        C901   1.451       .  S
C899        N906   1.157       .  T
C900        N905   1.158       .  T
C901        N903   1.156       .  T
C902        N904   1.157       .  T
C907        C912   1.423       .  A
C908        C909   1.415       .  A
C908        C913   1.451       .  S
C909        C916   1.454       .  S
C910        C911   1.425       .  A
C911        C912   1.419       .  A
C911        C914   1.453       .  S
C912        C915   1.452       .  S
C913        N920   1.157       .  T
C914        N919   1.158       .  T
C915        N917   1.157       .  T
C916        N918   1.158       .  T
C921        C922   1.420       .  A
C922        C923   1.419       .  A
C922        C927   1.451       .  S
C923        C924   1.423       .  A
C923        C930   1.449       .  S
C925        C926   1.413       .  A
C925        C928   1.453       .  S
C926        C929   1.451       .  S
C927       N1910   1.158   1_455  T
C928        N933   1.157       .  T
C929        N931   1.157       .  T
N934       C1903   1.158       .  T
C935        C936   1.424       .  A
C936        C937   1.414       .  A
C936        C941   1.451       .  S
C937        C944   1.451       .  S
C938        C939   1.409       .  A
C939        C940   1.410       .  A
C939        C942   1.452       .  S
C940        C943   1.449       .  S
C941        N948   1.158       .  T
C943       N1921   1.157   1_455  T
C944        N946   1.157       .  T
N945       C1919   1.157       .  T
C949        C954   1.422       .  A
C950        C951   1.418       .  A
C950        C955   1.448       .  S
C951        C958   1.452       .  S
C952        C953   1.412       .  A
C953        C954   1.412       .  A
C953        C956   1.453       .  S
C954        C957   1.452       .  S
C955        N962   1.157       .  T
C956        N961   1.158       .  T
C957        N959   1.157       .  T
C958        N960   1.157       .  T
C963        C964   1.424       .  A
C964        C965   1.407       .  A
C964        C969   1.454       .  S
C965        C972   1.453       .  S
C966        C967   1.411       .  A
C967        C968   1.420       .  A
C967        C970   1.451       .  S
C968        C971   1.448       .  S
C969        N976   1.157       .  T
C970        N975   1.157       .  T
C971        N973   1.158       .  T
C972        N974   1.157       .  T
C977        C978   1.526   1_565  S
C977        C983   1.540       .  S
C977       C1469   1.551       .  S
C977       C1207   1.557   1_565  S
C978        H985   1.087       .  S
C978       C1223   1.359       .  D
C979       C1468   1.552   1_545  S
C979       C1222   1.359       .  D
C979       C1182   1.489       .  S
C980       C1467   1.552       .  S
C980       C1472   1.545       .  S
C980        C982   1.544       .  S
C980        H986   1.099       .  S
C981       C1465   1.551       .  S
C981        H987   1.079       .  S
C981       C1226   1.379       .  D
C982       C1225   1.379       .  D
C982       C1168   1.521       .  S
C983       H1232   1.086       .  S
C983       C1228   1.364   1_554  D
C984       C1468   1.545       .  S
C984       C1227   1.364       .  D
C984       C1681   1.514       .  S
H988       C1227   1.086       .  S
O989       Ni997   1.918       .  S
O989        C999   1.281       .  A
O990       Ni997   1.920       .  S
O990       C1000   1.281       .  A
O991       Ni997   1.935       .  S
O991       C1001   1.285       .  A
O992       Ni997   1.935       .  S
O992       C1002   1.285       .  A
O993       Ni998   1.907       .  S
O993       C1490   1.279   1_545  A
O994       Ni998   1.909       .  S
O994       C1489   1.279   1_545  A
O995       Ni998   1.923       .  S
O995       C1488   1.283   1_545  A
O996       Ni998   1.929       .  S
O996       C1487   1.283   1_545  A
Ni997     Ni1486   2.379       .  S
Ni998     Ni1485   2.379   1_545  S
C999       O1484   1.283       .  A
C999       C1196   1.495       .  S
C1000      O1483   1.283       .  A
C1000      C1154   1.521       .  S
C1001      O1482   1.279       .  A
C1001      C1140   1.502       .  S
C1002      O1481   1.279       .  A
C1002      C1210   1.491       .  S
C1003      C1004   1.548       .  S
C1003      C1009   1.524       .  S
C1003      C1495   1.548       .  S
C1003      C1151   1.563       .  S
C1004      H1011   1.085       .  S
C1004      C1249   1.365       .  D
C1005      C1006   1.538       .  S
C1005      C1248   1.365       .  D
C1005      C1109   1.495       .  S
C1006      C1010   1.550       .  S
C1006      C1496   1.553       .  S
C1006      H1012   1.107       .  S
C1007      C1491   1.548   1_545  S
C1007      H1013   1.073       .  S
C1007      C1252   1.374       .  D
C1008      C1494   1.553   1_545  S
C1008      C1251   1.374       .  D
C1008      C1123   1.525       .  S
C1009      H1258   1.087       .  S
C1009      C1254   1.365   1_554  D
C1010      C1253   1.365       .  D
C1010      C1137   1.500       .  S
H1014      C1253   1.087       .  S
C1015      C1021   1.538       .  S
C1015      C1019   1.534   1_455  S
C1015      C1081   1.554       .  S
C1016      H1023   1.080       .  S
C1016      C1261   1.368       .  D
C1017      C1260   1.368       .  D
C1017      C1179   1.508       .  S
C1018      C1022   1.539       .  S
C1018      C1020   1.552   1_454  S
C1018      H1024   1.105       .  S
C1019      H1025   1.086       .  S
C1019      C1264   1.373       .  D
C1020      C1263   1.373       .  D
C1020      C1126   1.518       .  S
C1021      H1270   1.085       .  S
C1021      C1266   1.359       .  D
C1022      C1265   1.359   1_554  D
C1022      C1098   1.487       .  S
H1026      C1265   1.085       .  S
O1027     Ni1035   1.921       .  S
O1028     Ni1035   1.928       .  S
O1029     Ni1035   1.910       .  S
O1030     Ni1035   1.908       .  S
O1031     Ni1036   1.929       .  S
O1031      C1040   1.284   1_655  A
O1032     Ni1036   1.928       .  S
O1032      C1039   1.284       .  A
O1033     Ni1036   1.902       .  S
O1033      C1038   1.278   1_655  A
O1034     Ni1036   1.904       .  S
O1034      C1037   1.278       .  A
C1037      C1070   1.479       .  S
C1038      C1084   1.483       .  S
C1039      C1095   1.510       .  S
C1040      C1053   1.491       .  S
C1041      C1042   1.545       .  S
C1041      C1047   1.536   1_554  S
C1041      C1067   1.544       .  S
C1042      H1049   1.079       .  S
C1042      C1287   1.375   1_554  D
C1043      C1044   1.552       .  S
C1043      C1286   1.375       .  D
C1043      C1165   1.521       .  S
C1044      C1048   1.547       .  S
C1044      H1050   1.101       .  S
C1045      H1051   1.087       .  S
C1045      C1290   1.355   1_554  D
C1046      C1289   1.355       .  D
C1046      C1112   1.491       .  S
C1047      H1296   1.085       .  S
C1047      C1292   1.365       .  D
C1048      C1291   1.365       .  D
C1048      C1056   1.508       .  S
H1052      C1291   1.085       .  S
C1053      C1054   1.413   1_455  A
C1054      C1055   1.418       .  A
C1054      C1059   1.451       .  S
C1055      C1062   1.448       .  S
C1056      C1057   1.421       .  A
C1057      C1058   1.408       .  A
C1057      C1060   1.451       .  S
C1058      C1061   1.454       .  S
C1059      N1066   1.157       .  T
C1060      N1065   1.156       .  T
C1061      N1063   1.158       .  T
C1062      N1064   1.157       .  T
C1067      C1072   1.423       .  A
C1068      C1069   1.406       .  A
C1068      C1073   1.454       .  S
C1069      C1070   1.409       .  A
C1069      C1076   1.451       .  S
C1070      C1071   1.409   1_655  A
C1071      C1074   1.452       .  S
C1072      C1075   1.450       .  S
C1073      N1324   1.158       .  T
C1074      N1079   1.157       .  T
C1075      N1077   1.158       .  T
C1076      N1078   1.156       .  T
N1080      C1317   1.157       .  T
C1081      C1082   1.425   1_455  A
C1082      C1083   1.408       .  A
C1082      C1087   1.450       .  S
C1083      C1084   1.409   1_655  A
C1083      C1090   1.455       .  S
C1085      C1086   1.415       .  A
C1085      C1088   1.451       .  S
C1086      C1089   1.450       .  S
C1087      N1338   1.156       .  T
C1088      N1093   1.157       .  T
C1089      N1091   1.158       .  T
C1090      N1092   1.157       .  T
N1094      C1331   1.156       .  T
C1095      C1100   1.423       .  A
C1096      C1097   1.413       .  A
C1096      C1101   1.451       .  S
C1097      C1104   1.450       .  S
C1098      C1099   1.410   1_455  A
C1099      C1100   1.412       .  A
C1099      C1102   1.452       .  S
C1100      C1103   1.451       .  S
C1101      N1108   1.158       .  T
C1102      N1107   1.157       .  T
C1103      N1105   1.158       .  T
C1104      N1106   1.157       .  T
C1109      C1110   1.411       .  A
C1109      C1358   1.412       .  A
C1110      C1111   1.411       .  A
C1110      C1115   1.445       .  S
C1111      C1112   1.413       .  A
C1111      C1118   1.453       .  S
C1112      C1357   1.415       .  A
C1113      C1356   1.415       .  A
C1113      C1114   1.416       .  A
C1113      C1116   1.451       .  S
C1114      C1353   1.412   1_556  A
C1114      C1117   1.450       .  S
C1115      N1610   1.155       .  T
C1116      N1121   1.157       .  T
C1117      N1119   1.157       .  T
N1122      C1603   1.155   1_545  T
C1123      C1368   1.429       .  A
C1123      C1128   1.418       .  A
C1124      C1367   1.429       .  A
C1124      C1125   1.417       .  A
C1124      C1129   1.454       .  S
C1125      C1126   1.418   1_554  A
C1125      C1132   1.450       .  S
C1126      C1371   1.421       .  A
C1127      C1370   1.421       .  A
C1127      C1128   1.414       .  A
C1127      C1130   1.453       .  S
C1128      C1131   1.450       .  S
C1129      N1136   1.158       .  T
C1130      N1135   1.158       .  T
C1131      N1133   1.157       .  T
C1132      N1134   1.157       .  T
C1137      C1138   1.410       .  A
C1137      C1630   1.411       .  A
C1138      C1139   1.420       .  A
C1138      C1143   1.446       .  S
C1139      C1140   1.420       .  A
C1139      C1146   1.450       .  S
C1140      C1629   1.419       .  A
C1141      C1628   1.419   1_545  A
C1141      C1142   1.407       .  A
C1141      C1144   1.452       .  S
C1142      C1625   1.411   1_545  A
C1142      C1145   1.451       .  S
C1143      N1150   1.157       .  T
C1144      N1149   1.158       .  T
C1145      N1147   1.156       .  T
C1146      N1148   1.157       .  T
C1151      C1640   1.424       .  A
C1151      C1156   1.423       .  A
C1152      C1639   1.424   1_545  A
C1152      C1153   1.415       .  A
C1152      C1157   1.451       .  S
C1153      C1642   1.422   1_545  A
C1153      C1160   1.454       .  S
C1154      C1641   1.422       .  A
C1154      C1155   1.425       .  A
C1155      C1156   1.419       .  A
C1155      C1158   1.453       .  S
C1156      C1159   1.452       .  S
C1157      N1164   1.157       .  T
C1158      N1163   1.158       .  T
C1159      N1161   1.157       .  T
C1160      N1162   1.158       .  T
C1165      C1166   1.420       .  A
C1165      C1414   1.422       .  A
C1166      C1167   1.419       .  A
C1166      C1171   1.451       .  S
C1167      C1168   1.423       .  A
C1167      C1174   1.449       .  S
C1168      C1413   1.416       .  A
C1169      C1412   1.416   1_554  A
C1169      C1170   1.413       .  A
C1169      C1172   1.453       .  S
C1170      C1409   1.422   1_554  A
C1170      C1173   1.451       .  S
C1172      N1177   1.157       .  T
C1173      N1175   1.157       .  T
C1174      N1664   1.158       .  T
N1176      C1662   1.158   1_545  T
C1179      C1180   1.424       .  A
C1179      C1428   1.418   1_556  A
C1180      C1181   1.414       .  A
C1180      C1185   1.451       .  S
C1181      C1426   1.407   1_556  A
C1181      C1188   1.451       .  S
C1182      C1425   1.407       .  A
C1182      C1183   1.409       .  A
C1183      C1184   1.410       .  A
C1183      C1186   1.452       .  S
C1184      C1423   1.418       .  A
C1184      C1187   1.449       .  S
C1185      N1192   1.157       .  T
C1186      N1679   1.157   1_545  T
C1188      N1190   1.157       .  T
N1191      C1674   1.157       .  T
C1193      C1472   1.514       .  S
C1193      C1682   1.420       .  A
C1193      C1198   1.422       .  A
C1194      C1681   1.420   1_545  A
C1194      C1195   1.418       .  A
C1194      C1199   1.448       .  S
C1195      C1684   1.413   1_545  A
C1195      C1202   1.452       .  S
C1196      C1683   1.413       .  A
C1196      C1197   1.412       .  A
C1197      C1198   1.412       .  A
C1197      C1200   1.453       .  S
C1198      C1201   1.452       .  S
C1199      N1206   1.157       .  T
C1200      N1205   1.157       .  T
C1201      N1203   1.157       .  T
C1202      N1204   1.157       .  T
C1207      C1208   1.424       .  A
C1207      C1700   1.426   1_545  A
C1208      C1209   1.407       .  A
C1208      C1213   1.453       .  S
C1209      C1698   1.411   1_545  A
C1209      C1216   1.453       .  S
C1210      C1697   1.411       .  A
C1210      C1211   1.411       .  A
C1211      C1212   1.420       .  A
C1211      C1214   1.451       .  S
C1212      C1695   1.426       .  A
C1212      C1215   1.448       .  S
C1213      N1220   1.157       .  T
C1214      N1219   1.157       .  T
C1215      N1217   1.158       .  T
C1216      N1218   1.157       .  T
C1221      C1222   1.526   1_565  S
C1221      C1227   1.540       .  S
C1221      C1713   1.551       .  S
C1221      C1451   1.557   1_565  S
C1222      H1229   1.087       .  S
C1223      C1712   1.552   1_544  S
C1223      C1426   1.489       .  S
C1224      C1711   1.552   1_556  S
C1224      C1716   1.545       .  S
C1224      C1226   1.544   1_556  S
C1224      H1230   1.099       .  S
C1225      C1709   1.551       .  S
C1225      H1231   1.079       .  S
C1226      C1412   1.521   1_554  S
C1228      C1712   1.545       .  S
C1228      C1925   1.514       .  S
O1233     Ni1241   1.918       .  S
O1233      C1243   1.281       .  A
O1234     Ni1241   1.920       .  S
O1234      C1244   1.281       .  A
O1235     Ni1241   1.935       .  S
O1235      C1245   1.285       .  A
O1236     Ni1241   1.935       .  S
O1236      C1246   1.284       .  A
O1237     Ni1242   1.907       .  S
O1237      C1734   1.279   1_545  A
O1238     Ni1242   1.909       .  S
O1238      C1733   1.279   1_545  A
O1239     Ni1242   1.923       .  S
O1239      C1732   1.283   1_545  A
O1240     Ni1242   1.929       .  S
O1240      C1731   1.283   1_545  A
Ni1241    Ni1730   2.379       .  S
Ni1242    Ni1729   2.379   1_545  S
C1243      O1728   1.283       .  A
C1243      C1440   1.495       .  S
C1244      O1727   1.283       .  A
C1244      C1398   1.521       .  S
C1245      O1726   1.279       .  A
C1245      C1384   1.502       .  S
C1246      O1725   1.279       .  A
C1246      C1454   1.491       .  S
C1247      C1248   1.548       .  S
C1247      C1253   1.524       .  S
C1247      C1739   1.548       .  S
C1247      C1395   1.563       .  S
C1248      H1255   1.085       .  S
C1249      C1250   1.538   1_554  S
C1249      C1353   1.495       .  S
C1250      C1254   1.550       .  S
C1250      C1740   1.553   1_556  S
C1250      H1256   1.107       .  S
C1251      C1735   1.548   1_545  S
C1251      H1257   1.073       .  S
C1252      C1738   1.553   1_544  S
C1252      C1367   1.525       .  S
C1254      C1381   1.500       .  S
C1259      C1265   1.538       .  S
C1259      C1263   1.534   1_455  S
C1259      C1325   1.554       .  S
C1260      H1267   1.080       .  S
C1261      C1423   1.508       .  S
C1262      C1266   1.540       .  S
C1262      C1264   1.552   1_455  S
C1262      H1268   1.105       .  S
C1263      H1269   1.086       .  S
C1264      C1370   1.518       .  S
C1266      C1342   1.487       .  S
O1271     Ni1279   1.921       .  S
O1272     Ni1279   1.928       .  S
O1273     Ni1279   1.910       .  S
O1274     Ni1279   1.908       .  S
O1275     Ni1280   1.929       .  S
O1275      C1284   1.284   1_655  A
O1276     Ni1280   1.928       .  S
O1276      C1283   1.284       .  A
O1277     Ni1280   1.902       .  S
O1277      C1282   1.278   1_655  A
O1278     Ni1280   1.904       .  S
O1278      C1281   1.278       .  A
C1281      C1314   1.479       .  S
C1282      C1328   1.483       .  S
C1283      C1339   1.510       .  S
C1284      C1297   1.491       .  S
C1285      C1286   1.545       .  S
C1285      C1291   1.536       .  S
C1285      C1311   1.544       .  S
C1286      H1293   1.079       .  S
C1287      C1288   1.552       .  S
C1287      C1409   1.521       .  S
C1288      C1292   1.547       .  S
C1288      H1294   1.101       .  S
C1289      H1295   1.087       .  S
C1290      C1356   1.491       .  S
C1292      C1300   1.508       .  S
C1297      C1298   1.413   1_455  A
C1298      C1299   1.418       .  A
C1298      C1303   1.451       .  S
C1299      C1306   1.448       .  S
C1300      C1301   1.421       .  A
C1301      C1302   1.408       .  A
C1301      C1304   1.451       .  S
C1302      C1305   1.454       .  S
C1303      N1310   1.157       .  T
C1304      N1309   1.157       .  T
C1305      N1307   1.158       .  T
C1306      N1308   1.157       .  T
C1311      C1316   1.423       .  A
C1312      C1313   1.406       .  A
C1312      C1317   1.454       .  S
C1313      C1314   1.409       .  A
C1313      C1320   1.451       .  S
C1314      C1315   1.409   1_655  A
C1315      C1318   1.452       .  S
C1316      C1319   1.450       .  S
C1318      N1323   1.157       .  T
C1319      N1321   1.158       .  T
C1320      N1322   1.156       .  T
C1325      C1326   1.425   1_455  A
C1326      C1327   1.408       .  A
C1326      C1331   1.450       .  S
C1327      C1328   1.409   1_655  A
C1327      C1334   1.455       .  S
C1329      C1330   1.415       .  A
C1329      C1332   1.451       .  S
C1330      C1333   1.450       .  S
C1332      N1337   1.157       .  T
C1333      N1335   1.158       .  T
C1334      N1336   1.157       .  T
C1339      C1344   1.423       .  A
C1340      C1341   1.413       .  A
C1340      C1345   1.451       .  S
C1341      C1348   1.450       .  S
C1342      C1343   1.410   1_455  A
C1343      C1344   1.412       .  A
C1343      C1346   1.452       .  S
C1344      C1347   1.451       .  S
C1345      N1352   1.158       .  T
C1346      N1351   1.157       .  T
C1347      N1349   1.158       .  T
C1348      N1350   1.157       .  T
C1353      C1354   1.411       .  A
C1354      C1355   1.411       .  A
C1354      C1359   1.445       .  S
C1355      C1356   1.413   1_554  A
C1355      C1362   1.453       .  S
C1357      C1358   1.416       .  A
C1357      C1360   1.451       .  S
C1358      C1361   1.450       .  S
C1359      N1854   1.155       .  T
C1360      N1365   1.157       .  T
C1361      N1363   1.157       .  T
N1366      C1847   1.155   1_545  T
C1367      C1372   1.418   1_554  A
C1368      C1369   1.417       .  A
C1368      C1373   1.454       .  S
C1369      C1370   1.418       .  A
C1369      C1376   1.450       .  S
C1371      C1372   1.414       .  A
C1371      C1374   1.453       .  S
C1372      C1375   1.450       .  S
C1373      N1380   1.158       .  T
C1374      N1379   1.158       .  T
C1375      N1377   1.157       .  T
C1376      N1378   1.157       .  T
C1381      C1382   1.410       .  A
C1381      C1874   1.411       .  A
C1382      C1383   1.420       .  A
C1382      C1387   1.446       .  S
C1383      C1384   1.420       .  A
C1383      C1390   1.450       .  S
C1384      C1873   1.419       .  A
C1385      C1872   1.419   1_545  A
C1385      C1386   1.407       .  A
C1385      C1388   1.452       .  S
C1386      C1869   1.411   1_545  A
C1386      C1389   1.451       .  S
C1387      N1394   1.157       .  T
C1388      N1393   1.158       .  T
C1389      N1391   1.156       .  T
C1390      N1392   1.157       .  T
C1395      C1884   1.424       .  A
C1395      C1400   1.423       .  A
C1396      C1883   1.424   1_545  A
C1396      C1397   1.415       .  A
C1396      C1401   1.451       .  S
C1397      C1886   1.422   1_545  A
C1397      C1404   1.454       .  S
C1398      C1885   1.422       .  A
C1398      C1399   1.425       .  A
C1399      C1400   1.419       .  A
C1399      C1402   1.453       .  S
C1400      C1403   1.452       .  S
C1401      N1408   1.157       .  T
C1402      N1407   1.158       .  T
C1403      N1405   1.157       .  T
C1404      N1406   1.158       .  T
C1409      C1410   1.420       .  A
C1410      C1411   1.419       .  A
C1410      C1415   1.451       .  S
C1411      C1412   1.423       .  A
C1411      C1418   1.449       .  S
C1413      C1414   1.413       .  A
C1413      C1416   1.453       .  S
C1414      C1417   1.451       .  S
C1416      N1421   1.157       .  T
C1417      N1419   1.157       .  T
C1418      N1908   1.158       .  T
N1420      C1906   1.158   1_545  T
C1423      C1424   1.424       .  A
C1424      C1425   1.414       .  A
C1424      C1429   1.451       .  S
C1425      C1432   1.451       .  S
C1426      C1427   1.409       .  A
C1427      C1428   1.410       .  A
C1427      C1430   1.452       .  S
C1428      C1431   1.449       .  S
C1429      N1436   1.157       .  T
C1430      N1923   1.157   1_545  T
C1432      N1434   1.157       .  T
N1435      C1918   1.157       .  T
C1437      C1716   1.514       .  S
C1437      C1926   1.420       .  A
C1437      C1442   1.422       .  A
C1438      C1925   1.420   1_545  A
C1438      C1439   1.418       .  A
C1438      C1443   1.448       .  S
C1439      C1928   1.413   1_545  A
C1439      C1446   1.452       .  S
C1440      C1927   1.413       .  A
C1440      C1441   1.412       .  A
C1441      C1442   1.412       .  A
C1441      C1444   1.453       .  S
C1442      C1445   1.452       .  S
C1443      N1450   1.157       .  T
C1444      N1449   1.157       .  T
C1445      N1447   1.157       .  T
C1446      N1448   1.157       .  T
C1451      C1452   1.424       .  A
C1451      C1944   1.426   1_545  A
C1452      C1453   1.407       .  A
C1452      C1457   1.453       .  S
C1453      C1942   1.411   1_545  A
C1453      C1460   1.453       .  S
C1454      C1941   1.411       .  A
C1454      C1455   1.411       .  A
C1455      C1456   1.420       .  A
C1455      C1458   1.451       .  S
C1456      C1939   1.426       .  A
C1456      C1459   1.448       .  S
C1457      N1464   1.157       .  T
C1458      N1463   1.157       .  T
C1459      N1461   1.158       .  T
C1460      N1462   1.157       .  T
C1465      C1466   1.526       .  S
C1465      C1471   1.540       .  S
C1465      C1695   1.557       .  S
C1466      H1473   1.087       .  S
C1466      C1711   1.359       .  D
C1467      C1710   1.359       .  D
C1467      C1670   1.489       .  S
C1468      C1470   1.544       .  S
C1468      H1474   1.099   1_565  S
C1469      H1475   1.079       .  S
C1469      C1714   1.379       .  D
C1470      C1713   1.379       .  D
C1470      C1656   1.521       .  S
C1471      H1720   1.086       .  S
C1471      C1716   1.364   1_554  D
C1472      C1715   1.364       .  D
H1476      C1715   1.086       .  S
O1477     Ni1485   1.918       .  S
O1477      C1487   1.281       .  A
O1478     Ni1485   1.920       .  S
O1478      C1488   1.281       .  A
O1479     Ni1485   1.935       .  S
O1479      C1489   1.285       .  A
O1480     Ni1485   1.935       .  S
O1480      C1490   1.284       .  A
O1481     Ni1486   1.907       .  S
O1482     Ni1486   1.909       .  S
O1483     Ni1486   1.923       .  S
O1484     Ni1486   1.929       .  S
C1487      C1684   1.495       .  S
C1488      C1642   1.521       .  S
C1489      C1628   1.502       .  S
C1490      C1698   1.491       .  S
C1491      C1492   1.548       .  S
C1491      C1497   1.524       .  S
C1491      C1639   1.563       .  S
C1492      H1499   1.085       .  S
C1492      C1737   1.366       .  D
C1493      C1494   1.538       .  S
C1493      C1736   1.365       .  D
C1493      C1597   1.495       .  S
C1494      C1498   1.550       .  S
C1494      H1500   1.106       .  S
C1495      H1501   1.073       .  S
C1495      C1740   1.374       .  D
C1496      C1739   1.374       .  D
C1496      C1611   1.525       .  S
C1497      H1746   1.087       .  S
C1497      C1742   1.365   1_554  D
C1498      C1741   1.365       .  D
C1498      C1625   1.500       .  S
H1502      C1741   1.088       .  S
C1503      C1509   1.538       .  S
C1503      C1507   1.534   1_455  S
C1503      C1569   1.554       .  S
C1504      H1511   1.080       .  S
C1504      C1749   1.368       .  D
C1505      C1748   1.368       .  D
C1505      C1667   1.508       .  S
C1506      C1510   1.540       .  S
C1506      C1508   1.552   1_454  S
C1506      H1512   1.105       .  S
C1507      H1513   1.086       .  S
C1507      C1752   1.373       .  D
C1508      C1751   1.373       .  D
C1508      C1614   1.518       .  S
C1509      H1758   1.085       .  S
C1509      C1754   1.359       .  D
C1510      C1753   1.359   1_554  D
C1510      C1586   1.487       .  S
H1514      C1753   1.085       .  S
O1515     Ni1523   1.921       .  S
O1516     Ni1523   1.928       .  S
O1517     Ni1523   1.910       .  S
O1518     Ni1523   1.908       .  S
O1519     Ni1524   1.929       .  S
O1519      C1528   1.284   1_655  A
O1520     Ni1524   1.928       .  S
O1520      C1527   1.284       .  A
O1521     Ni1524   1.902       .  S
O1521      C1526   1.278   1_655  A
O1522     Ni1524   1.904       .  S
O1522      C1525   1.278       .  A
C1525      C1558   1.479       .  S
C1526      C1572   1.483       .  S
C1527      C1583   1.510       .  S
C1528      C1541   1.491       .  S
C1529      C1530   1.545       .  S
C1529      C1535   1.536   1_554  S
C1529      C1555   1.544       .  S
C1530      H1537   1.079       .  S
C1530      C1775   1.375   1_554  D
C1531      C1532   1.552       .  S
C1531      C1774   1.375       .  D
C1531      C1653   1.521       .  S
C1532      C1536   1.547       .  S
C1532      H1538   1.101       .  S
C1533      H1539   1.087       .  S
C1533      C1778   1.355   1_554  D
C1534      C1777   1.355       .  D
C1534      C1600   1.491       .  S
C1535      H1784   1.085       .  S
C1535      C1780   1.365       .  D
C1536      C1779   1.365       .  D
C1536      C1544   1.508       .  S
H1540      C1779   1.085       .  S
C1541      C1542   1.413   1_455  A
C1542      C1543   1.418       .  A
C1542      C1547   1.451       .  S
C1543      C1550   1.448       .  S
C1544      C1545   1.421       .  A
C1545      C1546   1.408       .  A
C1545      C1548   1.451       .  S
C1546      C1549   1.454       .  S
C1547      N1554   1.157       .  T
C1548      N1553   1.156       .  T
C1549      N1551   1.158       .  T
C1550      N1552   1.157       .  T
C1555      C1560   1.423       .  A
C1556      C1557   1.406       .  A
C1556      C1561   1.454       .  S
C1557      C1558   1.409       .  A
C1557      C1564   1.451       .  S
C1558      C1559   1.409   1_655  A
C1559      C1562   1.452       .  S
C1560      C1563   1.450       .  S
C1561      N1812   1.158       .  T
C1562      N1567   1.157       .  T
C1563      N1565   1.158       .  T
C1564      N1566   1.157       .  T
N1568      C1805   1.158       .  T
C1569      C1570   1.425   1_455  A
C1570      C1571   1.408       .  A
C1570      C1575   1.450       .  S
C1571      C1572   1.409   1_655  A
C1571      C1578   1.455       .  S
C1573      C1574   1.415       .  A
C1573      C1576   1.451       .  S
C1574      C1577   1.450       .  S
C1575      N1826   1.156       .  T
C1576      N1581   1.157       .  T
C1577      N1579   1.158       .  T
C1578      N1580   1.157       .  T
N1582      C1819   1.156       .  T
C1583      C1588   1.423       .  A
C1584      C1585   1.413       .  A
C1584      C1589   1.451       .  S
C1585      C1592   1.450       .  S
C1586      C1587   1.410   1_455  A
C1587      C1588   1.412       .  A
C1587      C1590   1.452       .  S
C1588      C1591   1.451       .  S
C1589      N1596   1.158       .  T
C1590      N1595   1.157       .  T
C1591      N1593   1.158       .  T
C1592      N1594   1.157       .  T
C1597      C1598   1.411       .  A
C1597      C1846   1.412       .  A
C1598      C1599   1.411       .  A
C1598      C1603   1.445       .  S
C1599      C1600   1.413       .  A
C1599      C1606   1.453       .  S
C1600      C1845   1.415       .  A
C1601      C1844   1.415       .  A
C1601      C1602   1.416       .  A
C1601      C1604   1.451       .  S
C1602      C1841   1.412   1_556  A
C1602      C1605   1.450       .  S
C1604      N1609   1.157       .  T
C1605      N1607   1.157       .  T
C1611      C1856   1.429       .  A
C1611      C1616   1.418       .  A
C1612      C1855   1.429       .  A
C1612      C1613   1.417       .  A
C1612      C1617   1.454       .  S
C1613      C1614   1.418   1_554  A
C1613      C1620   1.450       .  S
C1614      C1859   1.421       .  A
C1615      C1858   1.421       .  A
C1615      C1616   1.414       .  A
C1615      C1618   1.453       .  S
C1616      C1619   1.450       .  S
C1617      N1624   1.158       .  T
C1618      N1623   1.158       .  T
C1619      N1621   1.157       .  T
C1620      N1622   1.157       .  T
C1625      C1626   1.410       .  A
C1626      C1627   1.420       .  A
C1626      C1631   1.446       .  S
C1627      C1628   1.420       .  A
C1627      C1634   1.450       .  S
C1629      C1630   1.407       .  A
C1629      C1632   1.452       .  S
C1630      C1633   1.451       .  S
C1631      N1638   1.157       .  T
C1632      N1637   1.157       .  T
C1633      N1635   1.156       .  T
C1634      N1636   1.157       .  T
C1639      C1644   1.423       .  A
C1640      C1641   1.415       .  A
C1640      C1645   1.451       .  S
C1641      C1648   1.454       .  S
C1642      C1643   1.425       .  A
C1643      C1644   1.419       .  A
C1643      C1646   1.453       .  S
C1644      C1647   1.452       .  S
C1645      N1652   1.157       .  T
C1646      N1651   1.158       .  T
C1647      N1649   1.157       .  T
C1648      N1650   1.158       .  T
C1653      C1654   1.420       .  A
C1653      C1902   1.422       .  A
C1654      C1655   1.419       .  A
C1654      C1659   1.451       .  S
C1655      C1656   1.423       .  A
C1655      C1662   1.449       .  S
C1656      C1901   1.416       .  A
C1657      C1900   1.416   1_554  A
C1657      C1658   1.413       .  A
C1657      C1660   1.453       .  S
C1658      C1897   1.422   1_554  A
C1658      C1661   1.451       .  S
C1660      N1665   1.157       .  T
C1661      N1663   1.157       .  T
C1667      C1668   1.424       .  A
C1667      C1916   1.418   1_556  A
C1668      C1669   1.414       .  A
C1668      C1673   1.451       .  S
C1669      C1914   1.407   1_556  A
C1669      C1676   1.451       .  S
C1670      C1913   1.407       .  A
C1670      C1671   1.409       .  A
C1671      C1672   1.410       .  A
C1671      C1674   1.452       .  S
C1672      C1911   1.418       .  A
C1672      C1675   1.449       .  S
C1673      N1680   1.158       .  T
C1676      N1678   1.157       .  T
C1681      C1686   1.422       .  A
C1682      C1683   1.418       .  A
C1682      C1687   1.448       .  S
C1683      C1690   1.452       .  S
C1684      C1685   1.412       .  A
C1685      C1686   1.412       .  A
C1685      C1688   1.453       .  S
C1686      C1689   1.452       .  S
C1687      N1694   1.157       .  T
C1688      N1693   1.157       .  T
C1689      N1691   1.157       .  T
C1690      N1692   1.157       .  T
C1695      C1696   1.424       .  A
C1696      C1697   1.407       .  A
C1696      C1701   1.453       .  S
C1697      C1704   1.453       .  S
C1698      C1699   1.411       .  A
C1699      C1700   1.420       .  A
C1699      C1702   1.451       .  S
C1700      C1703   1.448       .  S
C1701      N1708   1.157       .  T
C1702      N1707   1.157       .  T
C1703      N1705   1.158       .  T
C1704      N1706   1.157       .  T
C1709      C1710   1.526       .  S
C1709      C1715   1.540       .  S
C1709      C1939   1.557       .  S
C1710      H1717   1.087       .  S
C1711      C1914   1.489       .  S
C1712      C1714   1.544   1_556  S
C1712      H1718   1.099   1_565  S
C1713      H1719   1.079       .  S
C1714      C1900   1.521   1_554  S
O1721     Ni1729   1.918       .  S
O1721      C1731   1.281       .  A
O1722     Ni1729   1.920       .  S
O1722      C1732   1.281       .  A
O1723     Ni1729   1.935       .  S
O1723      C1733   1.285       .  A
O1724     Ni1729   1.935       .  S
O1724      C1734   1.284       .  A
O1725     Ni1730   1.907       .  S
O1726     Ni1730   1.909       .  S
O1727     Ni1730   1.923       .  S
O1728     Ni1730   1.929       .  S
C1731      C1928   1.495       .  S
C1732      C1886   1.521       .  S
C1733      C1872   1.502       .  S
C1734      C1942   1.491       .  S
C1735      C1736   1.548       .  S
C1735      C1741   1.524       .  S
C1735      C1883   1.563       .  S
C1736      H1743   1.086       .  S
C1737      C1738   1.538   1_554  S
C1737      C1841   1.495       .  S
C1738      C1742   1.550       .  S
C1738      H1744   1.107       .  S
C1739      H1745   1.073       .  S
C1740      C1855   1.525       .  S
C1742      C1869   1.500       .  S
C1747      C1753   1.538       .  S
C1747      C1751   1.534   1_455  S
C1747      C1813   1.554       .  S
C1748      H1755   1.080       .  S
C1749      C1911   1.508       .  S
C1750      C1754   1.540       .  S
C1750      C1752   1.552   1_455  S
C1750      H1756   1.105       .  S
C1751      H1757   1.086       .  S
C1752      C1858   1.518       .  S
C1754      C1830   1.487       .  S
O1759     Ni1767   1.921       .  S
O1760     Ni1767   1.928       .  S
O1761     Ni1767   1.910       .  S
O1762     Ni1767   1.908       .  S
O1763     Ni1768   1.929       .  S
O1763      C1772   1.284   1_655  A
O1764     Ni1768   1.928       .  S
O1764      C1771   1.284       .  A
O1765     Ni1768   1.902       .  S
O1765      C1770   1.278   1_655  A
O1766     Ni1768   1.904       .  S
O1766      C1769   1.278       .  A
C1769      C1802   1.479       .  S
C1770      C1816   1.483       .  S
C1771      C1827   1.510       .  S
C1772      C1785   1.491       .  S
C1773      C1774   1.545       .  S
C1773      C1779   1.536       .  S
C1773      C1799   1.544       .  S
C1774      H1781   1.079       .  S
C1775      C1776   1.552       .  S
C1775      C1897   1.521       .  S
C1776      C1780   1.547       .  S
C1776      H1782   1.101       .  S
C1777      H1783   1.088       .  S
C1778      C1844   1.491       .  S
C1780      C1788   1.508       .  S
C1785      C1786   1.413   1_455  A
C1786      C1787   1.418       .  A
C1786      C1791   1.451       .  S
C1787      C1794   1.448       .  S
C1788      C1789   1.421       .  A
C1789      C1790   1.408       .  A
C1789      C1792   1.451       .  S
C1790      C1793   1.454       .  S
C1791      N1798   1.157       .  T
C1792      N1797   1.157       .  T
C1793      N1795   1.157       .  T
C1794      N1796   1.157       .  T
C1799      C1804   1.423       .  A
C1800      C1801   1.406       .  A
C1800      C1805   1.454       .  S
C1801      C1802   1.409       .  A
C1801      C1808   1.451       .  S
C1802      C1803   1.409   1_655  A
C1803      C1806   1.452       .  S
C1804      C1807   1.450       .  S
C1806      N1811   1.157       .  T
C1807      N1809   1.158       .  T
C1808      N1810   1.157       .  T
C1813      C1814   1.425   1_455  A
C1814      C1815   1.408       .  A
C1814      C1819   1.450       .  S
C1815      C1816   1.409   1_655  A
C1815      C1822   1.455       .  S
C1817      C1818   1.415       .  A
C1817      C1820   1.451       .  S
C1818      C1821   1.450       .  S
C1820      N1825   1.157       .  T
C1821      N1823   1.158       .  T
C1822      N1824   1.157       .  T
C1827      C1832   1.423       .  A
C1828      C1829   1.413       .  A
C1828      C1833   1.452       .  S
C1829      C1836   1.450       .  S
C1830      C1831   1.410   1_455  A
C1831      C1832   1.412       .  A
C1831      C1834   1.452       .  S
C1832      C1835   1.451       .  S
C1833      N1840   1.157       .  T
C1834      N1839   1.157       .  T
C1835      N1837   1.158       .  T
C1836      N1838   1.157       .  T
C1841      C1842   1.411       .  A
C1842      C1843   1.411       .  A
C1842      C1847   1.445       .  S
C1843      C1844   1.413   1_554  A
C1843      C1850   1.453       .  S
C1845      C1846   1.416       .  A
C1845      C1848   1.451       .  S
C1846      C1849   1.450       .  S
C1848      N1853   1.157       .  T
C1849      N1851   1.157       .  T
C1855      C1860   1.418   1_554  A
C1856      C1857   1.417       .  A
C1856      C1861   1.454       .  S
C1857      C1858   1.418       .  A
C1857      C1864   1.450       .  S
C1859      C1860   1.414       .  A
C1859      C1862   1.453       .  S
C1860      C1863   1.450       .  S
C1861      N1868   1.158       .  T
C1862      N1867   1.158       .  T
C1863      N1865   1.157       .  T
C1864      N1866   1.157       .  T
C1869      C1870   1.410       .  A
C1870      C1871   1.420       .  A
C1870      C1875   1.447       .  S
C1871      C1872   1.420       .  A
C1871      C1878   1.450       .  S
C1873      C1874   1.407       .  A
C1873      C1876   1.452       .  S
C1874      C1877   1.451       .  S
C1875      N1882   1.157       .  T
C1876      N1881   1.157       .  T
C1877      N1879   1.156       .  T
C1878      N1880   1.157       .  T
C1883      C1888   1.423       .  A
C1884      C1885   1.415       .  A
C1884      C1889   1.451       .  S
C1885      C1892   1.454       .  S
C1886      C1887   1.425       .  A
C1887      C1888   1.419       .  A
C1887      C1890   1.453       .  S
C1888      C1891   1.452       .  S
C1889      N1896   1.157       .  T
C1890      N1895   1.158       .  T
C1891      N1893   1.157       .  T
C1892      N1894   1.158       .  T
C1897      C1898   1.420       .  A
C1898      C1899   1.419       .  A
C1898      C1903   1.451       .  S
C1899      C1900   1.423       .  A
C1899      C1906   1.449       .  S
C1901      C1902   1.413       .  A
C1901      C1904   1.453       .  S
C1902      C1905   1.451       .  S
C1904      N1909   1.157       .  T
C1905      N1907   1.157       .  T
C1911      C1912   1.424       .  A
C1912      C1913   1.414       .  A
C1912      C1917   1.451       .  S
C1913      C1920   1.451       .  S
C1914      C1915   1.409       .  A
C1915      C1916   1.410       .  A
C1915      C1918   1.452       .  S
C1916      C1919   1.449       .  S
C1917      N1924   1.157       .  T
C1920      N1922   1.157       .  T
C1925      C1930   1.422       .  A
C1926      C1927   1.418       .  A
C1926      C1931   1.448       .  S
C1927      C1934   1.451       .  S
C1928      C1929   1.412       .  A
C1929      C1930   1.412       .  A
C1929      C1932   1.453       .  S
C1930      C1933   1.452       .  S
C1931      N1938   1.157       .  T
C1932      N1937   1.157       .  T
C1933      N1935   1.157       .  T
C1934      N1936   1.157       .  T
C1939      C1940   1.424       .  A
C1940      C1941   1.407       .  A
C1940      C1945   1.453       .  S
C1941      C1948   1.453       .  S
C1942      C1943   1.411       .  A
C1943      C1944   1.420       .  A
C1943      C1946   1.451       .  S
C1944      C1947   1.448       .  S
C1945      N1952   1.157       .  T
C1946      N1951   1.157       .  T
C1947      N1949   1.158       .  T
C1948      N1950   1.157       .  T
