geometry optimzed in LAMMPS
_audit_creation_date              2020-12-01 
_audit_creation_method            'lammps2cif' 
_symmetry_space_group_name_H-M    'P1' 
_symmetry_Int_Tables_number       1 
_symmetry_cell_setting            triclinic 
loop_ 
_symmetry_equiv_pos_as_xyz 
  x,y,z 
_cell_length_a                    48.70786237 
_cell_length_b                    48.6967209021525 
_cell_length_c                    32.463561762812425 
_cell_angle_alpha                 89.91753380823492 
_cell_angle_beta                  90.05232917642428 
_cell_angle_gamma                 90.2871545005295 
loop_ 
_atom_site_label 
_atom_site_type_symbol 
_atom_site_fract_x 
_atom_site_fract_y 
_atom_site_fract_z 
_atom_site_charge 
O1          O  0.33363364  0.97877149  0.06255551    -0.71200
O2          O  0.33268885  0.97723685  0.93889472    -0.72200
O3          O  0.37439277  0.97768465  0.00010039    -0.60800
O4          O  0.29193830  0.97835971  0.00133686    -0.69200
O5          O  0.29253171  0.02400196  0.99998931    -0.68800
O6          O  0.37494698  0.02332723  0.99874220    -0.60000
O7          O  0.33326541  0.02287857  0.93753774    -0.72600
O8          O  0.33421726  0.02441420  0.06121845    -0.71300
Cu9        Cu  0.33314232  0.97639961  0.00077825     1.04600
Cu10       Cu  0.33376196  0.02526419  0.99932971     1.04300
C11         C  0.33407736  0.00182446  0.08120735     0.95000
C12         C  0.33282239  0.99982096  0.91889187     0.94100
C13         C  0.38754905  0.00041366  0.99921447     0.86300
C14         C  0.27935506  0.00128797  0.00079856     0.92500
O15         O  0.33397717  0.02355883  0.43872597    -0.71200
O16         O  0.33311013  0.02201751  0.56240869    -0.72200
O17         O  0.37473928  0.02287675  0.50125319    -0.60800
O18         O  0.29233388  0.02278226  0.49982277    -0.69200
O19         O  0.29210632  0.97714045  0.49866772    -0.68800
O20         O  0.37461749  0.97723376  0.50010140    -0.60000
O21         O  0.33293644  0.97637556  0.56125900    -0.72600
O22         O  0.33380483  0.97791454  0.43757972    -0.71300
Cu23       Cu  0.33354457  0.02441296  0.50060184     1.04600
Cu24       Cu  0.33335916  0.97554862  0.49936663     1.04300
C25         C  0.33402630  0.00097044  0.41883273     0.95000
C26         C  0.33290540  0.99896036  0.58116229     0.94100
C27         C  0.38756079  0.00008915  0.50085995     0.86300
C28         C  0.27933555  0.99996981  0.49897765     0.92500
O29         O  0.97671448  0.66721549  0.06172736    -0.71200
O30         O  0.97639030  0.66676749  0.93802878    -0.72200
O31         O  0.97650766  0.62569745  0.00032302    -0.60800
O32         O  0.97658792  0.70817075  0.99945501    -0.69200
O33         O  0.02223154  0.70834009  0.99926248    -0.68800
O34         O  0.02214496  0.62588203  0.00013215    -0.60000
O35         O  0.02203058  0.66694431  0.93784805    -0.72600
O36         O  0.02235651  0.66739429  0.06152329    -0.71300
Cu37       Cu  0.97493682  0.66694385  0.99989376     1.04600
Cu38       Cu  0.02380004  0.66713422  0.99968628     1.04300
C39         C  0.99958697  0.66744331  0.08094469     0.95000
C40         C  0.99916561  0.66687325  0.91860999     0.94100
C41         C  0.99931460  0.61289835  0.00036145     0.86300
C42         C  0.99942674  0.72113249  0.99920813     0.92500
O43         O  0.02218491  0.62572830  0.49964999    -0.71200
O44         O  0.02216727  0.70817871  0.50001802    -0.72200
O45         O  0.02200166  0.66683178  0.56170811    -0.60800
O46         O  0.02232747  0.66717806  0.43801887    -0.69200
O47         O  0.97668544  0.66693526  0.43770100    -0.68800
O48         O  0.97636186  0.66659261  0.56139194    -0.60000
O49         O  0.97652539  0.70796123  0.49969369    -0.72600
O50         O  0.97654752  0.62545621  0.49932983    -0.71300
Cu51       Cu  0.02377780  0.66697508  0.49986666     1.04600
Cu52       Cu  0.97491562  0.66671556  0.49952306     1.04300
C53         C  0.99938161  0.61270009  0.49937974     0.95000
C54         C  0.99935175  0.72095059  0.49988989     0.94100
C55         C  0.99913400  0.66674367  0.58087904     0.86300
C56         C  0.99955462  0.66717791  0.41854006     0.92500
O57         O  0.66669569  0.02309910  0.06133483    -0.71200
O58         O  0.66692091  0.02191836  0.93764285    -0.72200
O59         O  0.62563089  0.02256507  0.99922719    -0.60800
O60         O  0.70808508  0.02248077  0.99968849    -0.69200
O61         O  0.70780917  0.97683751  0.00075029    -0.68800
O62         O  0.62533168  0.97691762  0.00027504    -0.60000
O63         O  0.66664838  0.97627140  0.93869036    -0.72600
O64         O  0.66641488  0.97745180  0.06235208    -0.71300
Cu65       Cu  0.66685254  0.02412658  0.99944316     1.04600
Cu66       Cu  0.66655166  0.97525833  0.00056512     1.04300
C67         C  0.66645883  0.00044675  0.08116583     0.95000
C68         C  0.66675986  0.99891561  0.91884296     0.94100
C69         C  0.61260135  0.99976246  0.99962937     0.86300
C70         C  0.72083679  0.99964651  0.00024608     0.92500
O71         O  0.66638782  0.97649889  0.56142283    -0.71200
O72         O  0.66622143  0.97761985  0.43775828    -0.72200
O73         O  0.70756987  0.97652273  0.49949693    -0.60800
O74         O  0.62510353  0.97764060  0.49965429    -0.69200
O75         O  0.62593989  0.02328376  0.50046927    -0.68800
O76         O  0.70836883  0.02216452  0.50029799    -0.60000
O77         O  0.66704402  0.02326404  0.43852851    -0.72600
O78         O  0.66722016  0.02214172  0.56223801    -0.71300
Cu79       Cu  0.66629740  0.97545835  0.49955286     1.04600
Cu80       Cu  0.66718116  0.02432323  0.50041385     1.04300
C81         C  0.66679247  0.99914728  0.58115666     0.95000
C82         C  0.66655895  0.00060422  0.41882038     0.94100
C83         C  0.72085363  0.99918530  0.49986718     0.86300
C84         C  0.61264208  0.00063581  0.50008536     0.92500
O85         O  0.00008003  0.04176925  0.96619707    -0.71200
O86         O  0.00032871  0.95935676  0.96454477    -0.72200
O87         O  0.95897598  0.00023480  0.96509633    -0.60800
O88         O  0.04144841  0.00088118  0.96566853    -0.69200
O89         O  0.04129425  0.00023225  0.03413860    -0.68800
O90         O  0.95882302  0.99957160  0.03356534    -0.60000
O91         O  0.00017628  0.95869321  0.03302029    -0.72600
O92         O  0.99991387  0.04112982  0.03467101    -0.71300
Cu93       Cu  0.00021997  0.00058540  0.96296244     1.04600
Cu94       Cu  0.00005085  0.99988250  0.03626879     1.04300
C95         C  0.99992329  0.05432773  0.00067427     0.95000
C96         C  0.00027073  0.94614956  0.99852772     0.94100
C97         C  0.94601284  0.99979963  0.99924793     0.86300
C98         C  0.05425633  0.00065379  0.99998660     0.92500
O99         O  0.04151208  0.00058203  0.53356618    -0.71200
O100        O  0.95901592  0.99954981  0.53436508    -0.72200
O101        O  0.00056788  0.95885916  0.53398916    -0.60800
O102        O  0.99995884  0.04125517  0.53407698    -0.69200
O103        O  0.99963032  0.04138588  0.46559606    -0.68800
O104        O  0.00023976  0.95892898  0.46550973    -0.60000
O105        O  0.95872594  0.99964579  0.46588943    -0.72600
O106        O  0.04115570  0.00067759  0.46509126    -0.71300
Cu107      Cu  0.00027727  0.00005779  0.53641786     1.04600
Cu108      Cu  0.99992750  0.00016191  0.46310490     1.04300
C109        C  0.05421821  0.00079138  0.49918947     0.95000
C110        C  0.94598648  0.99944843  0.50022658     0.94100
C111        C  0.00047867  0.94601557  0.49975131     0.86300
C112        C  0.99970293  0.05419627  0.49987141     0.92500
O113        O  0.02278801  0.33352128  0.93840216    -0.71200
O114        O  0.02280902  0.33355008  0.06208525    -0.72200
O115        O  0.02273900  0.29235525  0.00031337    -0.60800
O116        O  0.02280577  0.37486918  0.00014294    -0.69200
O117        O  0.97716933  0.37464550  0.00010636    -0.68800
O118        O  0.97709644  0.29219403  0.00026397    -0.60000
O119        O  0.97716899  0.33335283  0.06205694    -0.72600
O120        O  0.97714595  0.33333274  0.93835126    -0.71300
Cu121      Cu  0.02439992  0.33360131  0.00023743     1.04600
Cu122      Cu  0.97553797  0.33339529  0.00019294     1.04300
C123        C  0.99996581  0.33328134  0.91905658     0.95000
C124        C  0.99999616  0.33335273  0.08140036     0.94100
C125        C  0.99989501  0.27939403  0.00029510     0.86300
C126        C  0.99998559  0.38765144  0.00010933     0.92500
O127        O  0.02310393  0.33337118  0.56219906    -0.71200
O128        O  0.02312911  0.33308531  0.43849411    -0.72200
O129        O  0.02335794  0.37455170  0.50000620    -0.60800
O130        O  0.02288646  0.29207598  0.50069622    -0.69200
O131        O  0.97724324  0.29209681  0.50060781    -0.68800
O132        O  0.97772163  0.37456670  0.49990499    -0.60000
O133        O  0.97748945  0.33310525  0.43841106    -0.72600
O134        O  0.97746282  0.33340016  0.56209668    -0.71300
Cu135      Cu  0.02473120  0.33328971  0.50035402     1.04600
Cu136      Cu  0.97586922  0.33331386  0.50025465     1.04300
C137        C  0.00027491  0.33327927  0.58147060     0.95000
C138        C  0.00031145  0.33295895  0.41912539     0.94100
C139        C  0.00060847  0.38745303  0.49980564     0.86300
C140        C  0.99999469  0.27920951  0.50077938     0.92500
C141        C  0.00000317  0.33179549  0.70709794     0.18700
C142        C  0.02386497  0.32488590  0.72883239    -0.10400
C143        C  0.02380898  0.32485772  0.77192247    -0.11200
C144        C  0.99989026  0.33173817  0.79344203     0.20300
C145        C  0.97597565  0.33843625  0.77170268    -0.13300
C146        C  0.97603166  0.33846451  0.72862400    -0.11500
C147        C  0.99994907  0.33222447  0.83776267     0.01300
C148        C  0.99996416  0.33278401  0.87488450    -0.31600
C149        C  0.00016880  0.33231079  0.66277503     0.02600
C150        C  0.00024805  0.33285354  0.62564918    -0.33200
H151        H  0.04250853  0.31967302  0.71249377     0.13700
H152        H  0.04241051  0.31962762  0.78842778     0.13500
H153        H  0.95736430  0.34376988  0.78803495     0.13400
H154        H  0.95746194  0.34381614  0.71212599     0.12400
C155        C  0.00026349  0.33234430  0.20707926     0.18700
C156        C  0.98007706  0.31765784  0.22870876    -0.10400
C157        C  0.98013811  0.31755769  0.27180798    -0.11200
C158        C  0.00038735  0.33214259  0.29345169     0.20300
C159        C  0.02062409  0.34673998  0.27181425    -0.13300
C160        C  0.02056307  0.34684017  0.22873116    -0.11500
C161        C  0.00032570  0.33229224  0.33779530     0.01300
C162        C  0.00031379  0.33259181  0.37493423    -0.31600
C163        C  0.00009643  0.33266290  0.16273582     0.02600
C164        C  0.00001910  0.33302454  0.12559580    -0.33200
H165        H  0.96428741  0.30636863  0.21228196     0.13700
H166        H  0.96439270  0.30619646  0.28822327     0.13500
H167        H  0.03637905  0.35808426  0.28823189     0.13400
H168        H  0.03627352  0.35825712  0.21232611     0.12400
C169        C  0.99943770  0.13792701  0.50052870     0.18700
C170        C  0.99117464  0.15247498  0.46541779    -0.10400
C171        C  0.99125288  0.18119124  0.46563784    -0.11200
C172        C  0.99959184  0.19547409  0.50096976     0.20300
C173        C  0.00783482  0.18092863  0.53610060    -0.13300
C174        C  0.00775685  0.15220694  0.53588027    -0.11500
C175        C  0.99972472  0.22501663  0.50111837     0.01300
C176        C  0.99983849  0.24976605  0.50103593    -0.31600
C177        C  0.99944711  0.10838561  0.50023435     0.02600
C178        C  0.99952512  0.08363788  0.49998663    -0.33200
H179        H  0.98470868  0.14163335  0.43792084     0.13700
H180        H  0.98484342  0.19224079  0.43830813     0.13500
H181        H  0.01432358  0.19177333  0.56358262     0.13400
H182        H  0.01418985  0.14115450  0.56319393     0.12400
C183        C  0.99959125  0.19563670  0.00082766     0.18700
C184        C  0.02091663  0.18134602  0.02018890    -0.10400
C185        C  0.02086861  0.15262715  0.02045222    -0.11200
C186        C  0.99949304  0.13807626  0.00135806     0.20300
C187        C  0.97813696  0.15236352  0.98205317    -0.13300
C188        C  0.97818520  0.18108860  0.98178925    -0.11500
C189        C  0.99956595  0.10852639  0.00138027     0.01300
C190        C  0.99972514  0.08377449  0.00118956    -0.31600
C191        C  0.99969640  0.22518764  0.00050218     0.02600
C192        C  0.99982276  0.24994208  0.00034756    -0.33200
H193        H  0.03756323  0.19239160  0.03501244     0.13700
H194        H  0.03748631  0.14178474  0.03545491     0.13500
H195        H  0.96151141  0.14131426  0.96718339     0.13400
H196        H  0.96158870  0.19193411  0.96673998     0.12400
C197        C  0.80463273  0.99877390  0.49993420     0.18700
C198        C  0.81901181  0.00078922  0.53722360    -0.10400
C199        C  0.84773267  0.00085200  0.53735918    -0.11200
C200        C  0.86220783  0.99890154  0.50020632     0.20300
C201        C  0.84783125  0.99689950  0.46290904    -0.13300
C202        C  0.81910686  0.99683685  0.46277341    -0.11500
C203        C  0.89176799  0.99899764  0.50035576     0.01300
C204        C  0.91652610  0.99915245  0.50041145    -0.31600
C205        C  0.77507128  0.99875090  0.49981636     0.02600
C206        C  0.75031306  0.99885199  0.49980901    -0.33200
H207        H  0.80803407  0.00231566  0.56613518     0.13700
H208        H  0.85863495  0.00242396  0.56637337     0.13500
H209        H  0.85881151  0.99539611  0.43399681     0.13400
H210        H  0.80820275  0.99528788  0.43375794     0.12400
C211        C  0.66657752  0.99831373  0.70682306     0.18700
C212        C  0.64181963  0.00089433  0.72839571    -0.10400
C213        C  0.64179587  0.00084426  0.77148878    -0.11200
C214        C  0.66653083  0.99821147  0.79318488     0.20300
C215        C  0.69127817  0.99559636  0.77160854    -0.13300
C216        C  0.69130191  0.99564642  0.72852457    -0.11500
C217        C  0.66655251  0.99831072  0.83752220     0.01300
C218        C  0.66665669  0.99851934  0.87465867    -0.31600
C219        C  0.66663684  0.99850381  0.66248407     0.02600
C220        C  0.66672632  0.99875763  0.62534590    -0.33200
H221        H  0.62258275  0.00297854  0.71192712     0.13700
H222        H  0.62254207  0.00289299  0.78785967     0.13500
H223        H  0.71052264  0.99356206  0.78807249     0.13400
H224        H  0.71056372  0.99364750  0.71215912     0.12400
C225        C  0.66607634  0.00101496  0.29316951     0.18700
C226        C  0.64223748  0.00813464  0.27152781    -0.10400
C227        C  0.64219769  0.00809975  0.22843185    -0.11200
C228        C  0.66599700  0.00094579  0.20681501     0.20300
C229        C  0.68981203  0.99378711  0.22846617    -0.13300
C230        C  0.68985195  0.99382208  0.27154432    -0.11500
C231        C  0.66602122  0.00093965  0.16248073     0.01300
C232        C  0.66620418  0.00081181  0.12534625    -0.31600
C233        C  0.66616511  0.00105296  0.33750302     0.02600
C234        C  0.66634912  0.00094872  0.37463812    -0.33200
H235        H  0.62373162  0.01370889  0.28794157     0.13700
H236        H  0.62366198  0.01365114  0.21199925     0.13500
H237        H  0.70832018  0.98820342  0.21206283     0.13400
H238        H  0.70838954  0.98826163  0.28796672     0.12400
C239        C  0.80463800  0.99947233  0.99977558     0.18700
C240        C  0.81895743  0.00706940  0.96407700    -0.10400
C241        C  0.84768223  0.00702492  0.96382216    -0.11200
C242        C  0.86222124  0.99938134  0.99926485     0.20300
C243        C  0.84790247  0.99175486  0.03494685    -0.13300
C244        C  0.81917915  0.99179972  0.03520196    -0.11500
C245        C  0.89178643  0.99945095  0.99907779     0.01300
C246        C  0.91654749  0.99958082  0.99907487    -0.31600
C247        C  0.77507048  0.99955722  0.00005677     0.02600
C248        C  0.75030763  0.99961383  0.00022045    -0.33200
H249        H  0.80793118  0.01303256  0.93650428     0.13700
H250        H  0.85853653  0.01296301  0.93606232     0.13500
H251        H  0.85892862  0.98581133  0.06252909     0.13400
H252        H  0.80832697  0.98588122  0.06297251     0.12400
C253        C  0.00060501  0.47128255  0.49882378     0.18700
C254        C  0.98324213  0.48546977  0.47181039    -0.10400
C255        C  0.98295893  0.51420163  0.47176350    -0.11200
C256        C  0.00003497  0.52888249  0.49873439     0.20300
C257        C  0.01744381  0.51469506  0.52567409    -0.13300
C258        C  0.01772695  0.48596684  0.52572098    -0.11500
C259        C  0.99966096  0.55845576  0.49885841     0.01300
C260        C  0.99944447  0.58322306  0.49909111    -0.31600
C261        C  0.00074877  0.44170442  0.49909439     0.02600
C262        C  0.00075085  0.41693370  0.49942273    -0.33200
H263        H  0.96991306  0.47433465  0.45088137     0.13700
H264        H  0.96942075  0.52494970  0.45079029     0.13500
H265        H  0.03074018  0.52582810  0.54665249     0.13400
H266        H  0.03123278  0.47522084  0.54674413     0.12400
C267        C  0.00029142  0.86226551  0.49989361     0.18700
C268        C  0.98780057  0.84790847  0.46747667    -0.10400
C269        C  0.98753722  0.81918776  0.46751432    -0.11200
C270        C  0.99975926  0.80470630  0.49997549     0.20300
C271        C  0.01224683  0.81906262  0.53240069    -0.13300
C272        C  0.01251053  0.84778640  0.53236257    -0.11500
C273        C  0.99951868  0.77515601  0.49998230     0.01300
C274        C  0.99938325  0.75040201  0.49995366    -0.31600
C275        C  0.00051799  0.89181431  0.49985437     0.02600
C276        C  0.00057984  0.91656715  0.49977680    -0.33200
H277        H  0.97828455  0.85890307  0.44222726     0.13700
H278        H  0.97782971  0.80829139  0.44228621     0.13500
H279        H  0.02176101  0.80806683  0.55765020     0.13400
H280        H  0.02221658  0.85868493  0.55758919     0.12400
C281        C  0.99965107  0.47147800  0.00029296     0.18700
C282        C  0.00209515  0.48604627  0.96320869    -0.10400
C283        C  0.00197023  0.51477696  0.96333879    -0.11200
C284        C  0.99939592  0.52907932  0.00055182     0.20300
C285        C  0.99692710  0.51451339  0.03763543    -0.13300
C286        C  0.99705205  0.48578042  0.03750526    -0.11500
C287        C  0.99931754  0.55865399  0.00066459     0.01300
C288        C  0.99929361  0.58342244  0.00060573    -0.31600
C289        C  0.99983297  0.44190155  0.00016735     0.01600
C290        C  0.99995855  0.41713186  0.00010671    -0.33200
H291        H  0.00410892  0.47520943  0.93425281     0.13700
H292        H  0.00388997  0.52582190  0.93448191     0.13500
H293        H  0.99492276  0.52535245  0.06659065     0.13400
H294        H  0.99514173  0.47473487  0.06636308     0.12400
C295        C  0.99903315  0.66742569  0.70655796     0.18700
C296        C  0.97432949  0.67033845  0.72816854    -0.10400
C297        C  0.97434068  0.67036035  0.77126130    -0.11200
C298        C  0.99905486  0.66746826  0.79292999     0.20300
C299        C  0.02376972  0.66466332  0.77131788    -0.13300
C300        C  0.02375868  0.66464140  0.72822838    -0.11500
C301        C  0.99904523  0.66724602  0.83727377     0.01300
C302        C  0.99907231  0.66701550  0.87441495    -0.31600
C303        C  0.99900493  0.66716898  0.66221470     0.02600
C304        C  0.99903254  0.66691441  0.62507432    -0.33200
H305        H  0.95509334  0.67251914  0.71172885     0.13700
H306        H  0.95511255  0.67255713  0.78765670     0.13500
H307        H  0.04300005  0.66242725  0.78775583     0.13400
H308        H  0.04298109  0.66238973  0.71183596     0.12400
C309        C  0.99969783  0.66805643  0.20657179     0.18700
C310        C  0.98594469  0.64720499  0.22815574    -0.10400
C311        C  0.98592698  0.64714551  0.27122848    -0.11200
C312        C  0.99966412  0.66793654  0.29291158     0.20300
C313        C  0.01339304  0.68882027  0.27133811    -0.13300
C314        C  0.01341082  0.68887984  0.22824428    -0.11500
C315        C  0.99969915  0.66777751  0.33723632     0.01300
C316        C  0.99966057  0.66750325  0.37436548    -0.31600
C317        C  0.99975320  0.66801683  0.16224701     0.02600
C318        C  0.99970433  0.66778579  0.12511812    -0.33200
H319        H  0.97527663  0.63100824  0.21170390     0.13700
H320        H  0.97524594  0.63090277  0.28760233     0.13500
H321        H  0.02407880  0.70499904  0.28780270     0.13400
H322        H  0.02410949  0.70510428  0.21185796     0.12400
C323        C  0.99979271  0.80486849  0.99801759     0.18700
C324        C  0.02311688  0.81930337  0.01131652    -0.10400
C325        C  0.02328253  0.84802120  0.01107778    -0.11200
C326        C  0.00012576  0.86241744  0.99753805     0.20300
C327        C  0.97682212  0.84798402  0.98414826    -0.13300
C328        C  0.97665647  0.81926332  0.98438636    -0.11500
C329        C  0.00022318  0.89196052  0.99762949     0.01300
C330        C  0.00027589  0.91670885  0.99795365    -0.31600
C331        C  0.99958984  0.77532540  0.99843962     0.02600
C332        C  0.99947600  0.75057625  0.99881997    -0.33200
H333        H  0.04111790  0.80837251  0.02190842     0.13700
H334        H  0.04140609  0.85898265  0.02150573     0.13500
H335        H  0.95880361  0.85891676  0.97362720     0.13400
H336        H  0.95851643  0.80830092  0.97402976     0.12400
C337        C  0.52888809  0.00103782  0.50058599     0.18700
C338        C  0.51442181  0.02580656  0.49854611    -0.10400
C339        C  0.48569665  0.02561472  0.49880923    -0.11200
C340        C  0.47132549  0.00065547  0.50111629     0.20300
C341        C  0.48579839  0.97589909  0.50317031    -0.13300
C342        C  0.51451192  0.97609077  0.50290716    -0.11500
C343        C  0.44177111  0.00042058  0.50124471     0.01300
C344        C  0.41701631  0.00020049  0.50117981    -0.31600
C345        C  0.55844065  0.00117197  0.50031891     0.02600
C346        C  0.58319283  0.00102239  0.50017075    -0.33200
H347        H  0.52532852  0.04521553  0.49674510     0.13700
H348        H  0.47471275  0.04487931  0.49719038     0.13500
H349        H  0.47489866  0.95648450  0.50494491     0.13400
H350        H  0.52548925  0.95682082  0.50449883     0.12400
C351        C  0.19556359  0.00066122  0.49815971     0.18700
C352        C  0.18121302  0.99988269  0.53553443    -0.10400
C353        C  0.15249892  0.00014411  0.53565226    -0.11200
C354        C  0.13799481  0.00119211  0.49839479     0.20300
C355        C  0.15234028  0.00203817  0.46100772    -0.13300
C356        C  0.18106564  0.00177674  0.46088966    -0.11500
C357        C  0.10843540  0.00123866  0.49856284     0.01300
C358        C  0.08367808  0.00110877  0.49885188    -0.31600
C359        C  0.22512013  0.00028297  0.49811422     0.02600
C360        C  0.24987563  0.00003012  0.49840269    -0.33200
H361        H  0.19220942  0.99903172  0.56453198     0.13700
H362        H  0.14162193  0.99947796  0.56473655     0.13500
H363        H  0.14133642  0.00284592  0.43201490     0.13400
H364        H  0.19194837  0.00239900  0.43180933     0.12400
C365        C  0.47129819  0.00018638  0.99826478     0.18700
C366        C  0.48587037  0.02389145  0.00957184    -0.10400
C367        C  0.51458877  0.02383335  0.00969685    -0.11200
C368        C  0.52885448  0.00006859  0.99851716     0.20300
C369        C  0.51428256  0.97639070  0.98709371    -0.13300
C370        C  0.48556533  0.97644886  0.98696884    -0.11500
C371        C  0.55840214  0.99994316  0.99891007     0.01300
C372        C  0.58315193  0.99982621  0.99928070    -0.31600
C373        C  0.44174830  0.00018322  0.99844350     0.02600
C374        C  0.41699734  0.00022497  0.99875206    -0.33200
H375        H  0.47504592  0.04236070  0.01835503     0.13700
H376        H  0.52565000  0.04225807  0.01857000     0.13500
H377        H  0.52510618  0.95790672  0.97838202     0.13400
H378        H  0.47450492  0.95800830  0.97816745     0.12400
C379        C  0.33252061  0.99817076  0.70685045     0.18700
C380        C  0.30806483  0.99335207  0.72844855    -0.10400
C381        C  0.30800962  0.99355431  0.77154494    -0.11200
C382        C  0.33241165  0.99857543  0.79322424     0.20300
C383        C  0.35686992  0.00334925  0.77162229    -0.13300
C384        C  0.35692506  0.00314700  0.72853749    -0.11500
C385        C  0.33237114  0.99890891  0.83756724     0.01300
C386        C  0.33250771  0.99928579  0.87470518    -0.31600
C387        C  0.33255888  0.99819582  0.66250106     0.02600
C388        C  0.33267349  0.99843952  0.62535711    -0.33200
H389        H  0.28907166  0.98949953  0.71199626     0.13700
H390        H  0.28897788  0.98984410  0.78793054     0.13500
H391        H  0.37585490  0.00725964  0.78806695     0.13400
H392        H  0.37594892  0.00691582  0.71215912     0.12400
C393        C  0.33466297  0.00269380  0.20684822     0.18700
C394        C  0.35832587  0.99502374  0.22848801    -0.10400
C395        C  0.35829507  0.99482772  0.27157634    -0.11200
C396        C  0.33460138  0.00230114  0.29319868     0.20300
C397        C  0.31096578  0.01004570  0.27155733    -0.13300
C398        C  0.31099679  0.01024175  0.22847399    -0.11500
C399        C  0.33449177  0.00190488  0.33752725     0.01300
C400        C  0.33431362  0.00150095  0.37465710    -0.31600
C401        C  0.33458553  0.00260648  0.16251587     0.02600
C402        C  0.33439950  0.00233752  0.12538353    -0.33200
H403        H  0.37673352  0.98913615  0.21207473     0.13700
H404        H  0.37668260  0.98880123  0.28800175     0.13500
H405        H  0.29253216  0.01585798  0.28796718     0.13400
H406        H  0.29258312  0.01619316  0.21205027     0.12400
C407        C  0.19559813  0.00163733  0.00060462     0.18700
C408        C  0.18112574  0.01765784  0.02899154    -0.10400
C409        C  0.15240323  0.01750270  0.02884578    -0.11200
C410        C  0.13803130  0.00132863  0.00031210     0.20300
C411        C  0.15250757  0.98535303  0.97187294    -0.13300
C412        C  0.18122646  0.98550876  0.97201797    -0.11500
C413        C  0.10847357  0.00109359  0.00024680     0.01300
C414        C  0.08371653  0.00088515  0.00016470    -0.31600
C415        C  0.22515133  0.00165738  0.00087880     0.02600
C416        C  0.24990409  0.00153079  0.00096971    -0.33200
H417        H  0.19202865  0.03020851  0.05122598     0.13700
H418        H  0.14141990  0.02994142  0.05096432     0.13500
H419        H  0.14160816  0.97277792  0.94966528     0.13400
H420        H  0.19220831  0.97304731  0.94992653     0.12400
loop_ 
_geom_bond_atom_site_label_1 
_geom_bond_atom_site_label_2 
_geom_bond_distance 
_geom_bond_site_symmetry_2 
_ccdc_geom_bond_type 
O1           Cu9   2.009       .  S
O1           C11   1.276   1_565  A
O2           Cu9   2.009   1_556  S
O2           C12   1.276       .  A
O3           Cu9   2.010       .  S
O3           C13   1.276   1_564  A
O4           Cu9   2.010       .  S
O4           C14   1.276   1_565  A
O5          Cu10   2.009       .  S
O5           C14   1.276   1_556  A
O6          Cu10   2.009       .  S
O6           C13   1.276       .  A
O7          Cu10   2.010       .  S
O7           C12   1.276   1_545  A
O8          Cu10   2.010   1_554  S
O8           C11   1.276       .  A
Cu9         Cu10   2.380   1_564  S
C11         C402   1.434       .  S
C12         C386   1.435       .  S
C13         C374   1.435       .  S
C14         C416   1.435       .  S
O15         Cu23   2.009       .  S
O15          C25   1.276       .  A
O16         Cu23   2.010       .  S
O16          C26   1.276   1_545  A
O17         Cu23   2.008       .  S
O17          C27   1.276       .  A
O18         Cu23   2.009       .  S
O18          C28   1.276   1_545  A
O19         Cu24   2.011       .  S
O19          C28   1.277       .  A
O20         Cu24   2.011       .  S
O20          C27   1.277   1_565  A
O21         Cu24   2.010       .  S
O21          C26   1.276       .  A
O22         Cu24   2.009       .  S
O22          C25   1.276   1_565  A
Cu23        Cu24   2.380   1_545  S
C25         C400   1.434       .  S
C26         C388   1.435       .  S
C27         C344   1.435       .  S
C28         C360   1.435   1_565  S
O29         Cu37   2.009   1_554  S
O29          C39   1.276       .  A
O30         Cu37   2.010       .  S
O30          C40   1.276       .  A
O31         Cu37   2.010   1_554  S
O31          C41   1.277       .  A
O32         Cu37   2.009       .  S
O32          C42   1.276       .  A
O33         Cu38   2.008       .  S
O33          C42   1.276   1_455  A
O34         Cu38   2.010   1_554  S
O34          C41   1.276   1_455  A
O35         Cu38   2.009       .  S
O35          C40   1.276   1_455  A
O36         Cu38   2.009   1_554  S
O36          C39   1.276   1_455  A
Cu37        Cu38   2.380   1_655  S
C39         C318   1.434       .  S
C40         C302   1.435       .  S
C41         C288   1.435       .  S
C42         C332   1.434       .  S
O43         Cu51   2.010       .  S
O43          C53   1.276   1_455  A
O44         Cu51   2.008       .  S
O44          C54   1.276   1_455  A
O45         Cu51   2.010       .  S
O45          C55   1.276   1_455  A
O46         Cu51   2.009       .  S
O46          C56   1.276   1_455  A
O47         Cu52   2.009       .  S
O47          C56   1.276       .  A
O48         Cu52   2.010       .  S
O48          C55   1.276       .  A
O49         Cu52   2.010       .  S
O49          C54   1.276       .  A
O50         Cu52   2.011       .  S
O50          C53   1.277       .  A
Cu51        Cu52   2.380   1_455  S
C53         C260   1.435       .  S
C54         C274   1.434       .  S
C55         C304   1.435       .  S
C56         C316   1.434       .  S
O57         Cu65   2.010   1_554  S
O57          C67   1.276       .  A
O58         Cu65   2.009       .  S
O58          C68   1.276   1_545  A
O59         Cu65   2.009       .  S
O59          C69   1.276   1_545  A
O60         Cu65   2.010       .  S
O60          C70   1.276   1_546  A
O61         Cu66   2.011       .  S
O61          C70   1.277       .  A
O62         Cu66   2.010       .  S
O62          C69   1.276   1_554  A
O63         Cu66   2.009   1_556  S
O63          C68   1.276       .  A
O64         Cu66   2.009       .  S
O64          C67   1.276   1_565  A
Cu65        Cu66   2.380   1_546  S
C67         C232   1.434       .  S
C68         C218   1.435       .  S
C69         C372   1.434       .  S
C70         C248   1.435       .  S
O71         Cu79   2.009       .  S
O71          C81   1.276       .  A
O72         Cu79   2.009       .  S
O72          C82   1.276   1_565  A
O73         Cu79   2.011       .  S
O73          C83   1.277       .  A
O74         Cu79   2.010       .  S
O74          C84   1.276   1_565  A
O75         Cu80   2.009       .  S
O75          C84   1.276       .  A
O76         Cu80   2.009       .  S
O76          C83   1.276   1_545  A
O77         Cu80   2.010       .  S
O77          C82   1.276       .  A
O78         Cu80   2.010       .  S
O78          C81   1.276   1_545  A
Cu79        Cu80   2.380   1_565  S
C81         C220   1.435       .  S
C82         C234   1.434       .  S
C83         C206   1.435       .  S
C84         C346   1.435       .  S
O85         Cu93   2.008       .  S
O85          C95   1.276   1_456  A
O86         Cu93   2.008   1_565  S
O86          C96   1.276       .  A
O87         Cu93   2.010   1_655  S
O87          C97   1.276   1_545  A
O88         Cu93   2.010       .  S
O88          C98   1.276       .  A
O89         Cu94   2.010   1_545  S
O89          C98   1.276   1_554  A
O90         Cu94   2.010   1_655  S
O90          C97   1.276   1_554  A
O91         Cu94   2.009       .  S
O91          C96   1.276   1_554  A
O92         Cu94   2.009   1_645  S
O92          C95   1.276       .  A
Cu93        Cu94   2.380   1_546  S
C95         C190   1.434       .  S
C96         C330   1.434       .  S
C97         C246   1.435       .  S
C98         C414   1.435   1_556  S
O99        Cu107   2.011       .  S
O99         C109   1.277       .  A
O100       Cu107   2.011   1_665  S
O100        C110   1.277       .  A
O101       Cu107   2.008   1_565  S
O101        C111   1.276       .  A
O102       Cu107   2.008   1_655  S
O102        C112   1.276       .  A
O103       Cu108   2.009       .  S
O103        C112   1.276       .  A
O104       Cu108   2.009   1_465  S
O104        C111   1.276       .  A
O105       Cu108   2.009   1_565  S
O105        C110   1.276       .  A
O106       Cu108   2.009   1_455  S
O106        C109   1.276       .  A
Cu107      Cu108   2.380   1_455  S
C109        C358   1.435       .  S
C110        C204   1.435       .  S
C111        C276   1.434       .  S
C112        C178   1.434       .  S
O113       Cu121   2.009   1_556  S
O113        C123   1.276   1_455  A
O114       Cu121   2.009       .  S
O114        C124   1.276   1_455  A
O115       Cu121   2.010       .  S
O115        C125   1.276   1_455  A
O116       Cu121   2.011       .  S
O116        C126   1.277   1_455  A
O117       Cu122   2.010       .  S
O117        C126   1.276       .  A
O118       Cu122   2.008       .  S
O118        C125   1.276       .  A
O119       Cu122   2.010       .  S
O119        C124   1.276       .  A
O120       Cu122   2.009   1_556  S
O120        C123   1.276       .  A
Cu121      Cu122   2.380   1_455  S
C123        C148   1.434       .  S
C124        C164   1.435   1_655  S
C125        C192   1.434       .  S
C126        C290   1.436       .  S
O127       Cu135   2.009       .  S
O127        C137   1.276       .  A
O128       Cu135   2.010       .  S
O128        C138   1.276       .  A
O129       Cu135   2.011       .  S
O129        C139   1.277       .  A
O130       Cu135   2.009       .  S
O130        C140   1.276   1_455  A
O131       Cu136   2.009       .  S
O131        C140   1.276       .  A
O132       Cu136   2.010       .  S
O132        C139   1.277   1_655  A
O133       Cu136   2.009       .  S
O133        C138   1.276   1_655  A
O134       Cu136   2.009       .  S
O134        C137   1.276   1_655  A
Cu135      Cu136   2.380   1_455  S
C137        C150   1.434       .  S
C138        C162   1.435       .  S
C139        C262   1.436       .  S
C140        C176   1.434       .  S
C141        C149   1.439       .  S
C141        C142   1.401       .  A
C141        C146   1.401   1_455  A
C142        C143   1.399       .  A
C142        H151   1.084       .  S
C143        C144   1.401   1_455  A
C143        H152   1.083       .  S
C144        C147   1.439       .  S
C144        C145   1.401       .  A
C145        C146   1.398       .  A
C145        H153   1.084       .  S
C146        H154   1.083       .  S
C147        C148   1.205       .  T
C149        C150   1.205       .  T
C155        C163   1.440       .  S
C155        C156   1.401   1_455  A
C155        C160   1.401       .  A
C156        C157   1.399       .  A
C156        H165   1.083       .  S
C157        C158   1.401   1_655  A
C157        H166   1.083       .  S
C158        C161   1.440       .  S
C158        C159   1.401       .  A
C159        C160   1.399       .  A
C159        H167   1.084       .  S
C160        H168   1.083       .  S
C161        C162   1.206       .  T
C163        C164   1.206       .  T
C169        C177   1.439       .  S
C169        C170   1.401       .  A
C169        C174   1.401   1_655  A
C170        C171   1.398       .  A
C170        H179   1.083       .  S
C171        C172   1.401       .  A
C171        H180   1.083       .  S
C172        C175   1.439       .  S
C172        C173   1.401   1_655  A
C173        C174   1.399       .  A
C173        H181   1.083       .  S
C174        H182   1.083       .  S
C175        C176   1.205       .  T
C177        C178   1.205       .  T
C183        C191   1.439       .  S
C183        C184   1.401   1_655  A
C183        C188   1.401   1_554  A
C184        C185   1.399       .  A
C184        H193   1.084       .  S
C185        C186   1.401   1_455  A
C185        H194   1.083       .  S
C186        C189   1.439       .  S
C186        C187   1.401   1_554  A
C187        C188   1.399       .  A
C187        H195   1.083       .  S
C188        H196   1.083       .  S
C189        C190   1.205       .  T
C191        C192   1.205       .  T
C197        C205   1.440       .  S
C197        C198   1.401   1_565  A
C197        C202   1.401       .  A
C198        C199   1.399       .  A
C198        H207   1.083       .  S
C199        C200   1.401   1_545  A
C199        H208   1.083       .  S
C200        C203   1.440       .  S
C200        C201   1.401       .  A
C201        C202   1.399       .  A
C201        H209   1.083       .  S
C202        H210   1.083       .  S
C203        C204   1.206       .  T
C205        C206   1.206       .  T
C211        C219   1.439       .  S
C211        C212   1.401   1_565  A
C211        C216   1.401       .  A
C212        C213   1.399       .  A
C212        H221   1.083       .  S
C213        C214   1.401   1_545  A
C213        H222   1.083       .  S
C214        C217   1.439       .  S
C214        C215   1.401       .  A
C215        C216   1.399       .  A
C215        H223   1.084       .  S
C216        H224   1.083       .  S
C217        C218   1.206       .  T
C219        C220   1.206       .  T
C225        C233   1.439       .  S
C225        C226   1.401       .  A
C225        C230   1.401   1_545  A
C226        C227   1.399       .  A
C226        H235   1.083       .  S
C227        C228   1.401       .  A
C227        H236   1.083       .  S
C228        C231   1.439       .  S
C228        C229   1.401   1_545  A
C229        C230   1.398       .  A
C229        H237   1.083       .  S
C230        H238   1.084       .  S
C231        C232   1.206       .  T
C233        C234   1.206       .  T
C239        C247   1.440   1_556  S
C239        C240   1.401   1_565  A
C239        C244   1.401   1_556  A
C240        C241   1.399       .  A
C240        H249   1.083       .  S
C241        C242   1.401   1_545  A
C241        H250   1.083       .  S
C242        C245   1.440       .  S
C242        C243   1.401   1_556  A
C243        C244   1.399       .  A
C243        H251   1.083       .  S
C244        H252   1.083       .  S
C245        C246   1.206       .  T
C247        C248   1.206       .  T
C253        C261   1.440       .  S
C253        C254   1.402   1_455  A
C253        C258   1.401       .  A
C254        C255   1.399       .  A
C254        H263   1.083       .  S
C255        C256   1.401   1_655  A
C255        H264   1.083       .  S
C256        C259   1.440   1_455  S
C256        C257   1.401       .  A
C257        C258   1.399       .  A
C257        H265   1.083       .  S
C258        H266   1.084       .  S
C259        C260   1.206       .  T
C261        C262   1.206       .  T
C267        C275   1.439       .  S
C267        C268   1.401   1_455  A
C267        C272   1.401       .  A
C268        C269   1.399       .  A
C268        H277   1.083       .  S
C269        C270   1.401       .  A
C269        H278   1.083       .  S
C270        C273   1.439       .  S
C270        C271   1.401   1_655  A
C271        C272   1.399       .  A
C271        H279   1.083       .  S
C272        H280   1.083       .  S
C273        C274   1.205       .  T
C275        C276   1.205       .  T
C281        C289   1.440       .  S
C281        C282   1.401   1_654  A
C281        C286   1.401       .  A
C282        C283   1.399       .  A
C282        H291   1.083       .  S
C283        C284   1.401   1_456  A
C283        H292   1.083       .  S
C284        C287   1.440       .  S
C284        C285   1.401       .  A
C285        C286   1.399       .  A
C285        H293   1.083       .  S
C286        H294   1.083       .  S
C287        C288   1.206       .  T
C289        C290   1.206       .  T
C295        C303   1.440       .  S
C295        C296   1.401       .  A
C295        C300   1.401   1_655  A
C296        C297   1.399       .  A
C296        H305   1.083       .  S
C297        C298   1.401       .  A
C297        H306   1.083       .  S
C298        C301   1.440       .  S
C298        C299   1.401   1_655  A
C299        C300   1.399       .  A
C299        H307   1.083       .  S
C300        H308   1.083       .  S
C301        C302   1.206       .  T
C303        C304   1.206       .  T
C309        C317   1.439       .  S
C309        C310   1.401       .  A
C309        C314   1.401   1_655  A
C310        C311   1.398       .  A
C310        H319   1.083       .  S
C311        C312   1.401       .  A
C311        H320   1.084       .  S
C312        C315   1.439       .  S
C312        C313   1.401   1_655  A
C313        C314   1.399       .  A
C313        H321   1.083       .  S
C314        H322   1.083       .  S
C315        C316   1.205       .  T
C317        C318   1.205       .  T
C323        C331   1.439       .  S
C323        C324   1.401   1_656  A
C323        C328   1.401       .  A
C324        C325   1.398       .  A
C324        H333   1.083       .  S
C325        C326   1.401   1_554  A
C325        H334   1.084       .  S
C326        C329   1.439       .  S
C326        C327   1.401   1_455  A
C327        C328   1.399       .  A
C327        H335   1.083       .  S
C328        H336   1.083       .  S
C329        C330   1.205       .  T
C331        C332   1.205       .  T
C337        C345   1.439       .  S
C337        C338   1.401       .  A
C337        C342   1.401   1_545  A
C338        C339   1.399       .  A
C338        H347   1.083       .  S
C339        C340   1.401       .  A
C339        H348   1.083       .  S
C340        C343   1.440       .  S
C340        C341   1.401   1_545  A
C341        C342   1.399       .  A
C341        H349   1.083       .  S
C342        H350   1.083       .  S
C343        C344   1.206       .  T
C345        C346   1.206       .  T
C351        C359   1.440       .  S
C351        C352   1.401   1_545  A
C351        C356   1.401       .  A
C352        C353   1.399   1_565  A
C352        H361   1.083       .  S
C353        C354   1.401       .  A
C353        H362   1.083   1_545  S
C354        C357   1.440       .  S
C354        C355   1.401       .  A
C355        C356   1.399       .  A
C355        H363   1.083       .  S
C356        H364   1.083       .  S
C357        C358   1.206       .  T
C359        C360   1.206       .  T
C365        C373   1.439       .  S
C365        C366   1.401   1_556  A
C365        C370   1.401   1_545  A
C366        C367   1.399       .  A
C366        H375   1.083       .  S
C367        C368   1.401   1_554  A
C367        H376   1.083       .  S
C368        C371   1.439   1_545  S
C368        C369   1.401   1_545  A
C369        C370   1.399       .  A
C369        H377   1.083       .  S
C370        H378   1.083       .  S
C371        C372   1.206       .  T
C373        C374   1.206       .  T
C379        C387   1.440       .  S
C379        C380   1.401       .  A
C379        C384   1.401   1_565  A
C380        C381   1.399       .  A
C380        H389   1.083       .  S
C381        C382   1.401       .  A
C381        H390   1.083       .  S
C382        C385   1.440       .  S
C382        C383   1.401   1_565  A
C383        C384   1.399       .  A
C383        H391   1.084       .  S
C384        H392   1.083       .  S
C385        C386   1.206       .  T
C387        C388   1.206       .  T
C393        C401   1.439       .  S
C393        C394   1.401   1_545  A
C393        C398   1.401       .  A
C394        C395   1.399       .  A
C394        H403   1.083       .  S
C395        C396   1.401   1_565  A
C395        H404   1.083       .  S
C396        C399   1.439       .  S
C396        C397   1.401       .  A
C397        C398   1.399       .  A
C397        H405   1.083       .  S
C398        H406   1.083       .  S
C399        C400   1.206       .  T
C401        C402   1.206       .  T
C407        C415   1.439       .  S
C407        C408   1.401       .  A
C407        C412   1.401   1_544  A
C408        C409   1.399       .  A
C408        H417   1.083       .  S
C409        C410   1.401       .  A
C409        H418   1.083       .  S
C410        C413   1.440       .  S
C410        C411   1.401   1_544  A
C411        C412   1.399       .  A
C411        H419   1.083       .  S
C412        H420   1.083       .  S
C413        C414   1.206       .  T
C415        C416   1.206       .  T
