geometry optimzed in LAMMPS
_audit_creation_date              2020-11-30 
_audit_creation_method            'lammps2cif' 
_symmetry_space_group_name_H-M    'P1' 
_symmetry_Int_Tables_number       1 
_symmetry_cell_setting            triclinic 
loop_ 
_symmetry_equiv_pos_as_xyz 
  x,y,z 
_cell_length_a                    26.411638222587946 
_cell_length_b                    36.10483084290815 
_cell_length_c                    33.03156765189994 
_cell_angle_alpha                 90.12786696674584 
_cell_angle_beta                  90.20605376622058 
_cell_angle_gamma                 89.92352640865369 
loop_ 
_atom_site_label 
_atom_site_type_symbol 
_atom_site_fract_x 
_atom_site_fract_y 
_atom_site_fract_z 
_atom_site_charge 
O1          O  0.01781845  0.70037583  0.68023303    -0.57110
C2          C  0.43681445  0.62104612  0.61727749     0.75510
O3          O  0.44812344  0.59374428  0.73489461    -0.58270
C4          C  0.02387898  0.70936479  0.71712844     0.75490
C5          C  0.37773868  0.69927100  0.72185120     0.77880
Cd6        Cd  0.45628156  0.65125113  0.69622477     1.37460
O7          O  0.46787926  0.64739531  0.62232522    -0.57110
O8          O  0.39593394  0.70035859  0.68658759    -0.55920
C9          C  0.99441996  0.58497341  0.73127549     0.77840
O10         O  0.38874946  0.67127928  0.74328332    -0.58290
O11         O  0.41320191  0.60994728  0.64819028    -0.56740
O12         O  0.00513271  0.68780645  0.74314963    -0.56730
O13         O  0.02341532  0.60853612  0.71502221    -0.55910
O14         O  0.14335725  0.38958244  0.62020559    -0.57110
C15         C  0.07951930  0.32693724  0.70821848     0.75510
O16         O  0.21090810  0.36669182  0.74686664    -0.58270
C17         C  0.16956660  0.41878654  0.61719566     0.75490
C18         C  0.09425868  0.44621844  0.72878900     0.77880
Cd19       Cd  0.14856590  0.38561020  0.69418326     1.37460
O20         O  0.09733695  0.33163178  0.67299799    -0.57110
O21         O  0.07373481  0.42148250  0.70699805    -0.55920
C22         C  0.22656502  0.33986930  0.72540898     0.77840
O23         O  0.14107152  0.44193951  0.73655155    -0.58290
O24         O  0.09108572  0.35065435  0.73485199    -0.56740
O25         O  0.18835146  0.43179732  0.64955122    -0.56730
O26         O  0.21354560  0.33974821  0.68859135    -0.55910
O27         O  0.01624674  0.70546636  0.32191249    -0.57110
C28         C  0.43376611  0.62375624  0.38630843     0.75510
O29         O  0.38925484  0.66969845  0.25813814    -0.58270
C30         C  0.02601003  0.71000767  0.28459859     0.75490
C31         C  0.00404213  0.58892416  0.27637612     0.77880
Cd32       Cd  0.45626980  0.65384035  0.30802925     1.37460
O33         O  0.46198228  0.65194566  0.38267444    -0.57110
O34         O  0.02759308  0.61286912  0.29721354    -0.55920
C35         C  0.37790487  0.69945375  0.27651832     0.77840
O36         O  0.45790340  0.59586188  0.26830751    -0.58290
O37         O  0.41335629  0.61131019  0.35435702    -0.56740
O38         O  0.00678632  0.68689072  0.26027460    -0.56730
O39         O  0.39588312  0.70356856  0.31176705    -0.55910
O40         O  0.13644484  0.38711501  0.38424005    -0.57110
C41         C  0.07567378  0.32344056  0.29127948     0.75510
O42         O  0.14275432  0.43946368  0.26913569    -0.58270
C43         C  0.16574306  0.41479016  0.38747184     0.75490
C44         C  0.22344534  0.33734264  0.27839486     0.77880
Cd45       Cd  0.14400432  0.38220985  0.30991590     1.37460
O46         O  0.09505952  0.32553460  0.32639829    -0.57110
O47         O  0.21235048  0.33842124  0.31548232    -0.55920
C48         C  0.09675896  0.44677440  0.27720230     0.77840
O49         O  0.20416129  0.36256996  0.25653097    -0.58290
O50         O  0.08364585  0.35033068  0.26771493    -0.56740
O51         O  0.18707255  0.42585901  0.35546935    -0.56730
O52         O  0.07319645  0.42331991  0.29845732    -0.55910
O53         O  0.43561340  0.62117653  0.45853039    -0.57110
C54         C  0.43023602  0.60304513  0.57786787     0.75510
O55         O  0.36757628  0.51062933  0.49985405    -0.58270
C56         C  0.42756105  0.60490540  0.42522381     0.75490
C57         C  0.52607316  0.52873324  0.50053942     0.77880
Cd58       Cd  0.42652448  0.56513511  0.50094507     1.37470
O59         O  0.44086321  0.61937506  0.54522121    -0.57110
O60         O  0.52072709  0.56336630  0.49893169    -0.55920
C61         C  0.32678460  0.52924261  0.50067586     0.77840
O62         O  0.48551573  0.51005184  0.50204501    -0.58290
O63         O  0.41549261  0.56983784  0.57499433    -0.56740
O64         O  0.41635683  0.57089201  0.42694069    -0.56730
O65         O  0.33172795  0.56415044  0.50151376    -0.55910
O66         O  0.16887162  0.42046460  0.54516037    -0.57110
C67         C  0.17262896  0.43435616  0.42604393     0.75510
O68         O  0.11731890  0.53008314  0.49896188    -0.58270
C69         C  0.17561100  0.43745965  0.57820578     0.75490
C70         C  0.27623311  0.51127124  0.50075193     0.77880
Cd71       Cd  0.17654911  0.47522624  0.50135653     1.37460
O72         O  0.16306934  0.41912636  0.45953310    -0.57110
O73         O  0.27132454  0.47636550  0.50045769    -0.55920
C74         C  0.07680582  0.51137686  0.50075506     0.77840
O75         O  0.23541637  0.52985332  0.50119738    -0.58290
O76         O  0.18637777  0.46789341  0.42730339    -0.56740
O77         O  0.18543036  0.47167059  0.57594775    -0.56730
O78         O  0.08223023  0.47676926  0.50286344    -0.55910
O79         O  0.25829554  0.82620744  0.16905412    -0.57110
C80         C  0.18519449  0.91333912  0.10705932     0.75510
O81         O  0.14658758  0.86355949  0.23899225    -0.58270
C82         C  0.27727007  0.82463514  0.20435600     0.75490
C83         C  0.25198031  0.94762166  0.21687745     0.77880
Cd84       Cd  0.20663808  0.88190895  0.18516979     1.37470
O85         O  0.21403165  0.88540915  0.11065093    -0.57110
O86         O  0.27669428  0.92370361  0.19688365    -0.55920
C87         C  0.12770846  0.83758757  0.21799458     0.77840
O88         O  0.20618526  0.93984179  0.22477623    -0.58290
O89         O  0.16399906  0.92505250  0.13890938    -0.56740
O90         O  0.26686804  0.85099563  0.22813087    -0.56730
O91         O  0.13898436  0.83725310  0.18082688    -0.55910
O92         O  0.38783446  0.15037014  0.11048585    -0.57110
C93         C  0.32471103  0.21041660  0.20730354     0.75510
O94         O  0.39552659  0.09604715  0.22461956    -0.58270
C95         C  0.41733299  0.12280933  0.10694194     0.75490
C96         C  0.47091327  0.20075732  0.21728406     0.77880
Cd97       Cd  0.39467632  0.15377644  0.18494908     1.37460
O98         O  0.33610686  0.20612046  0.17027921    -0.57110
O99         O  0.45514716  0.20358709  0.18126696    -0.55920
C100        C  0.34972422  0.08813512  0.21663676     0.77840
O101        O  0.45941430  0.17133698  0.23604784    -0.58290
O102        O  0.34084793  0.18584750  0.23136775    -0.56740
O103        O  0.43900174  0.11145886  0.13881457    -0.56730
O104        O  0.32480505  0.11189175  0.19654506    -0.55910
O105        O  0.34383086  0.20419881  0.81964068    -0.57110
C106        C  0.41712075  0.12049859  0.87741123     0.75510
O107        O  0.40869739  0.09352040  0.76326615    -0.58270
C108        C  0.32637894  0.20894991  0.78421922     0.75490
C109        C  0.47671836  0.19916998  0.76898304     0.77880
Cd110      Cd  0.39931026  0.15245908  0.79903204     1.37470
O111        O  0.38722006  0.14763168  0.87285322    -0.57110
O112        O  0.46210169  0.20027107  0.80531078    -0.55920
C113        C  0.36170918  0.08628909  0.76328277     0.77840
O114        O  0.46200858  0.17195479  0.74777888    -0.58290
O115        O  0.44058271  0.10944650  0.84636755    -0.56740
O116        O  0.33911323  0.18547058  0.75764563    -0.56730
O117        O  0.33207327  0.11128346  0.77608983    -0.55910
O118        O  0.20807026  0.88773291  0.87266124    -0.57110
C119        C  0.26714001  0.82438087  0.78274705     0.75510
O120        O  0.14612129  0.86765920  0.74281303    -0.58270
C121        C  0.18265952  0.91737266  0.87629370     0.75490
C122        C  0.26225551  0.94685534  0.77055716     0.77880
Cd123      Cd  0.20349964  0.88597890  0.79852221     1.37470
O124        O  0.24719680  0.82801429  0.81740835    -0.57110
O125        O  0.28012691  0.92009194  0.79064720    -0.55920
C126        C  0.12276600  0.84477004  0.76499118     0.77840
O127        O  0.21579537  0.94448693  0.76046001    -0.58290
O128        O  0.26078750  0.85049287  0.75782625    -0.56740
O129        O  0.16464449  0.93141828  0.84420769    -0.56730
O130        O  0.12990135  0.84752836  0.80272163    -0.55910
O131        O  0.18826707  0.91693837  0.03491844    -0.57110
C132        C  0.17664816  0.93555227  0.91564829     0.75510
O133        O  0.11631332  0.02752161  0.99311985    -0.58270
C134        C  0.17875534  0.93254906  0.06830444     0.75490
C135        C  0.27506538  0.00904999  0.99319167     0.77880
Cd136      Cd  0.17539822  0.97292977  0.99282940     1.37470
O137        O  0.18344858  0.91824545  0.94843187    -0.57110
O138        O  0.26974848  0.97445588  0.99056509    -0.55920
C139        C  0.07555320  0.00894476  0.99315014     0.77840
O140        O  0.23450283  0.02771723  0.99569946    -0.58290
O141        O  0.16667076  0.96973310  0.91842849    -0.56740
O142        O  0.16547827  0.96619389  0.06681740    -0.56730
O143        O  0.08057649  0.97403674  0.99309300    -0.55910
O144        O  0.41235592  0.11783387  0.94933124    -0.57110
C145        C  0.42367983  0.10349258  0.06821485     0.75510
O146        O  0.36636229  0.00785504  0.99100470    -0.58270
C147        C  0.42264288  0.10174023  0.91640413     0.75490
C148        C  0.02495071  0.02694473  0.99317315     0.77880
Cd149      Cd  0.42515727  0.06303288  0.99272195     1.37470
O150        O  0.41418696  0.11911252  0.03486311    -0.57110
O151        O  0.01994881  0.06185242  0.99260065    -0.55920
C152        C  0.32572434  0.02645641  0.99321165     0.77840
O153        O  0.48418014  0.00838224  0.99370094    -0.58290
O154        O  0.43645357  0.06972794  0.06670294    -0.56740
O155        O  0.43615612  0.06819449  0.91863940    -0.56730
O156        O  0.33092465  0.06107070  0.99536954    -0.55910
C157        C  0.36554411  0.01983626  0.77600718    -0.08450
C158        C  0.34285939  0.04885925  0.75468425     0.07740
C159        C  0.29749941  0.04245332  0.73343895    -0.02220
C160        C  0.27335172  0.00804393  0.73663038    -0.06670
C161        C  0.29349738  0.97992551  0.76143764     0.06860
C162        C  0.34124094  0.98584408  0.78024018    -0.01700
Br163      Br  0.37382324  0.95146440  0.81643817    -0.01390
H164        H  0.40025938  0.02472664  0.79276198     0.10590
H165        H  0.23754966  0.00397530  0.72121199     0.08790
Br166      Br  0.26719484  0.08006604  0.70032747    -0.01820
C167        C  0.32883310  0.98515579  0.22975314    -0.08450
C168        C  0.27571849  0.98340263  0.22788729     0.07740
C169        C  0.24772312  0.01668847  0.23010958    -0.02220
C170        C  0.27311808  0.05064534  0.22990522    -0.06670
C171        C  0.32618641  0.05238925  0.22772378     0.06860
C172        C  0.35422911  0.01911665  0.22977870    -0.01700
Br173      Br  0.42686187  0.01737352  0.22766091    -0.01390
H174        H  0.35096133  0.95986984  0.22872428     0.10770
H175        H  0.25097984  0.07592840  0.22900729     0.08790
Br176      Br  0.17505783  0.01845100  0.22850989    -0.01820
C177        C  0.26297332  0.30575237  0.21912795    -0.08450
C178        C  0.25325581  0.30628444  0.26099400     0.07740
C179        C  0.26608033  0.27461296  0.28408768    -0.02220
C180        C  0.28715794  0.24376830  0.26518076    -0.06670
C181        C  0.29690650  0.24305357  0.22341497     0.06860
C182        C  0.28460621  0.27472432  0.20023188    -0.01700
Br183      Br  0.29621274  0.27814655  0.14300697    -0.01390
H184        H  0.25291084  0.32943534  0.20068258     0.10770
H185        H  0.29653672  0.22007555  0.28384923     0.08790
Br186      Br  0.25574271  0.26994163  0.34152747    -0.01820
C187        C  0.03595403  0.22493189  0.26564822    -0.08450
C188        C  0.49757189  0.23178530  0.23716072     0.07740
C189        C  0.48239107  0.26875574  0.22987906    -0.02220
C190        C  0.00691088  0.29783359  0.24949698    -0.06670
C191        C  0.04639429  0.29123878  0.27688559     0.06860
C192        C  0.06080725  0.25431528  0.28520394    -0.01700
Br193      Br  0.11683785  0.24232630  0.31985929    -0.01390
H194        H  0.04754937  0.19671242  0.27190959     0.10770
H195        H  0.99528679  0.32601705  0.24294711     0.08790
Br196      Br  0.42661227  0.28199279  0.19532734    -0.01820
C197        C  0.05480683  0.77549641  0.29081188    -0.08450
C198        C  0.05534977  0.74184383  0.26928850     0.07740
C199        C  0.07900658  0.74057101  0.23108995    -0.02220
C200        C  0.09979438  0.77261895  0.21474398    -0.06670
C201        C  0.09894103  0.80646262  0.23582833     0.06860
C202        C  0.07650632  0.80764768  0.27456765    -0.01700
Br203      Br  0.07239735  0.85223659  0.30613198    -0.01390
H204        H  0.03616942  0.77710226  0.31992276     0.10770
H205        H  0.11842886  0.77057050  0.18565576     0.08790
Br206      Br  0.08705820  0.69571513  0.20019339    -0.01820
C207        C  0.29231463  0.75666845  0.20753934    -0.08450
C208        C  0.30704546  0.79270075  0.21877034     0.07740
C209        C  0.34515052  0.79730709  0.24824286    -0.02220
C210        C  0.36615500  0.76639040  0.26705745    -0.06670
C211        C  0.35063678  0.73033161  0.25685180     0.06860
C212        C  0.31388125  0.72550896  0.22625667    -0.01700
Br213      Br  0.28924154  0.67750185  0.21098084    -0.01390
H214        H  0.26239862  0.75275358  0.18544274     0.10770
H215        H  0.39581832  0.77065816  0.28931795     0.08790
Br216      Br  0.37166565  0.84505414  0.26303381    -0.01820
C217        C  0.99786659  0.52152365  0.26281755    -0.08450
C218        C  0.02820006  0.55334372  0.26528766     0.07740
C219        C  0.08133207  0.54940871  0.26295095    -0.02220
C220        C  0.10305655  0.51404119  0.26309256    -0.06670
C221        C  0.07271136  0.48225052  0.26562999     0.06860
C222        C  0.01958358  0.48616932  0.26302321    -0.01700
Br223      Br  0.47452579  0.44447044  0.26073946    -0.01390
H224        H  0.45701990  0.52398049  0.26346645     0.10770
H225        H  0.14390147  0.51157326  0.26396804     0.08790
Br226      Br  0.12636358  0.59109409  0.26052388    -0.01820
C227        C  0.23972689  0.27265430  0.72623919    -0.08450
C228        C  0.25283545  0.30737368  0.74246889     0.07740
C229        C  0.28635864  0.30901118  0.77566355    -0.02220
C230        C  0.30787371  0.27620891  0.79063717    -0.06670
C231        C  0.29603795  0.24167058  0.77317341     0.06860
C232        C  0.26049856  0.24005857  0.74140177    -0.01700
Br233      Br  0.23718541  0.19416521  0.71838358    -0.01390
H234        H  0.21220294  0.27069353  0.70192347     0.10770
H235        H  0.33561768  0.27788441  0.81478980     0.08790
Br236      Br  0.30669464  0.35508864  0.79965843    -0.01820
C237        C  0.06523658  0.25909255  0.70684463    -0.08450
C238        C  0.04920079  0.29450188  0.71915116     0.07740
C239        C  0.00897257  0.29791100  0.74667342    -0.02220
C240        C  0.48701760  0.26624462  0.76279910    -0.06670
C241        C  0.50391797  0.23079882  0.75165663     0.06860
C242        C  0.04274745  0.22719934  0.72285142    -0.01700
Br243      Br  0.06899452  0.17978798  0.70709996    -0.01390
H244        H  0.09684595  0.25622317  0.68626618     0.10770
H245        H  0.45583613  0.26937808  0.78378207     0.08790
Br246      Br  0.48134655  0.34509332  0.76232352    -0.01820
C247        C  0.08194581  0.76182077  0.70223487    -0.08450
C248        C  0.04863773  0.74443090  0.72918422     0.07740
C249        C  0.03617753  0.76265442  0.76581483    -0.02220
C250        C  0.05777789  0.79686706  0.77493568    -0.06670
C251        C  0.09248785  0.81368894  0.74879367     0.06860
C252        C  0.10440023  0.79585813  0.71185416    -0.01700
Br253      Br  0.15431007  0.81422189  0.67485118    -0.01390
H254        H  0.09158051  0.74843218  0.67389553     0.10770
H255        H  0.04844881  0.80994720  0.80352411     0.08790
Br256      Br  0.48874254  0.74378418  0.80472355    -0.01820
C257        C  0.34005995  0.79712884  0.74807276    -0.08450
C258        C  0.29623033  0.79155396  0.77078988     0.07740
C259        C  0.27847467  0.75520948  0.77718781    -0.02220
C260        C  0.30556162  0.72505814  0.76143971    -0.06670
C261        C  0.34899077  0.73084954  0.73799702     0.06860
C262        C  0.36634307  0.76736881  0.73158691    -0.01700
Br263      Br  0.42667563  0.77902030  0.70192273    -0.01390
H264        H  0.35369274  0.82500437  0.74269841     0.10770
H265        H  0.29178447  0.69717593  0.76633169     0.08790
Br266      Br  0.21495689  0.74553620  0.80309615    -0.01820
C267        C  0.06132406  0.54451003  0.76014610    -0.08450
C268        C  0.01354553  0.54797259  0.74184221     0.07740
C269        C  0.98911341  0.51609639  0.72695314    -0.02220
C270        C  0.01465433  0.48229995  0.72692180    -0.06670
C271        C  0.06483215  0.47944262  0.74105412     0.06860
C272        C  0.08677983  0.51043634  0.76058942    -0.01700
Br273      Br  0.15167638  0.50898583  0.78688930    -0.01390
H274        H  0.07995481  0.56881366  0.77241310     0.10770
H275        H  0.99630155  0.45879560  0.71269004     0.08790
Br276      Br  0.42456758  0.51782529  0.69995309    -0.01820
O277        O  0.51781845  0.70037583  0.68023303    -0.57110
C278        C  0.93681445  0.62104612  0.61727749     0.75510
O279        O  0.94812345  0.59374428  0.73489461    -0.58270
C280        C  0.52387898  0.70936479  0.71712844     0.75490
C281        C  0.87773868  0.69927100  0.72185120     0.77880
Cd282      Cd  0.95628156  0.65125113  0.69622477     1.37460
O283        O  0.96787926  0.64739531  0.62232522    -0.57110
O284        O  0.89593394  0.70035859  0.68658759    -0.55920
C285        C  0.49441996  0.58497341  0.73127549     0.77840
O286        O  0.88874946  0.67127928  0.74328332    -0.58290
O287        O  0.91320190  0.60994728  0.64819028    -0.56740
O288        O  0.50513271  0.68780645  0.74314963    -0.56730
O289        O  0.52341532  0.60853612  0.71502221    -0.55910
O290        O  0.64335724  0.38958244  0.62020559    -0.57110
C291        C  0.57951929  0.32693724  0.70821847     0.75510
O292        O  0.71090809  0.36669182  0.74686664    -0.58270
C293        C  0.66956659  0.41878654  0.61719566     0.75490
C294        C  0.59425868  0.44621844  0.72878899     0.77880
Cd295      Cd  0.64856590  0.38561020  0.69418326     1.37460
O296        O  0.59733695  0.33163178  0.67299799    -0.57110
O297        O  0.57373481  0.42148250  0.70699805    -0.55920
C298        C  0.72656501  0.33986930  0.72540898     0.77840
O299        O  0.64107152  0.44193951  0.73655155    -0.58290
O300        O  0.59108571  0.35065435  0.73485199    -0.56740
O301        O  0.68835145  0.43179732  0.64955122    -0.56730
O302        O  0.71354559  0.33974821  0.68859135    -0.55910
O303        O  0.51624674  0.70546636  0.32191249    -0.57110
C304        C  0.93376611  0.62375624  0.38630842     0.75510
O305        O  0.88925484  0.66969845  0.25813814    -0.58270
C306        C  0.52601003  0.71000767  0.28459859     0.75490
C307        C  0.50404213  0.58892416  0.27637612     0.77880
Cd308      Cd  0.95626980  0.65384036  0.30802925     1.37460
O309        O  0.96198228  0.65194566  0.38267444    -0.57110
O310        O  0.52759308  0.61286912  0.29721354    -0.55920
C311        C  0.87790487  0.69945375  0.27651832     0.77840
O312        O  0.95790339  0.59586188  0.26830751    -0.58290
O313        O  0.91335629  0.61131019  0.35435702    -0.56740
O314        O  0.50678633  0.68689072  0.26027460    -0.56730
O315        O  0.89588311  0.70356856  0.31176705    -0.55910
O316        O  0.63644485  0.38711501  0.38424005    -0.57110
C317        C  0.57567378  0.32344056  0.29127948     0.75510
O318        O  0.64275433  0.43946368  0.26913569    -0.58270
C319        C  0.66574306  0.41479016  0.38747184     0.75490
C320        C  0.72344535  0.33734264  0.27839486     0.77880
Cd321      Cd  0.64400433  0.38220985  0.30991590     1.37460
O322        O  0.59505953  0.32553460  0.32639828    -0.57110
O323        O  0.71235048  0.33842124  0.31548232    -0.55920
C324        C  0.59675896  0.44677440  0.27720230     0.77840
O325        O  0.70416129  0.36256996  0.25653097    -0.58290
O326        O  0.58364586  0.35033068  0.26771492    -0.56740
O327        O  0.68707255  0.42585901  0.35546934    -0.56730
O328        O  0.57319646  0.42331991  0.29845731    -0.55910
O329        O  0.93561339  0.62117653  0.45853039    -0.57110
C330        C  0.93023602  0.60304513  0.57786787     0.75510
O331        O  0.86757628  0.51062933  0.49985405    -0.58270
C332        C  0.92756105  0.60490540  0.42522381     0.75490
C333        C  0.02607316  0.52873324  0.50053942     0.77880
Cd334      Cd  0.92652448  0.56513511  0.50094507     1.37470
O335        O  0.94086321  0.61937506  0.54522121    -0.57110
O336        O  0.02072709  0.56336630  0.49893169    -0.55920
C337        C  0.82678460  0.52924261  0.50067586     0.77840
O338        O  0.98551573  0.51005184  0.50204501    -0.58290
O339        O  0.91549260  0.56983784  0.57499433    -0.56740
O340        O  0.91635683  0.57089201  0.42694069    -0.56730
O341        O  0.83172795  0.56415044  0.50151376    -0.55910
O342        O  0.66887161  0.42046460  0.54516037    -0.57110
C343        C  0.67262897  0.43435616  0.42604393     0.75510
O344        O  0.61731890  0.53008314  0.49896188    -0.58270
C345        C  0.67561100  0.43745965  0.57820578     0.75490
C346        C  0.77623311  0.51127124  0.50075193     0.77880
Cd347      Cd  0.67654911  0.47522624  0.50135652     1.37460
O348        O  0.66306934  0.41912636  0.45953310    -0.57110
O349        O  0.77132454  0.47636550  0.50045769    -0.55920
C350        C  0.57680582  0.51137686  0.50075506     0.77840
O351        O  0.73541637  0.52985331  0.50119738    -0.58290
O352        O  0.68637777  0.46789341  0.42730339    -0.56740
O353        O  0.68543036  0.47167059  0.57594775    -0.56730
O354        O  0.58223023  0.47676925  0.50286343    -0.55910
O355        O  0.75829554  0.82620744  0.16905412    -0.57110
C356        C  0.68519449  0.91333912  0.10705932     0.75510
O357        O  0.64658757  0.86355949  0.23899225    -0.58270
C358        C  0.77727006  0.82463514  0.20435600     0.75490
C359        C  0.75198031  0.94762166  0.21687745     0.77880
Cd360      Cd  0.70663808  0.88190895  0.18516979     1.37470
O361        O  0.71403165  0.88540915  0.11065093    -0.57110
O362        O  0.77669428  0.92370361  0.19688365    -0.55920
C363        C  0.62770845  0.83758757  0.21799458     0.77840
O364        O  0.70618526  0.93984179  0.22477623    -0.58290
O365        O  0.66399906  0.92505250  0.13890938    -0.56740
O366        O  0.76686803  0.85099562  0.22813087    -0.56730
O367        O  0.63898436  0.83725311  0.18082688    -0.55910
O368        O  0.88783446  0.15037014  0.11048585    -0.57110
C369        C  0.82471104  0.21041660  0.20730354     0.75510
O370        O  0.89552660  0.09604715  0.22461956    -0.58270
C371        C  0.91733299  0.12280933  0.10694194     0.75490
C372        C  0.97091327  0.20075732  0.21728406     0.77880
Cd373      Cd  0.89467632  0.15377643  0.18494908     1.37460
O374        O  0.83610687  0.20612046  0.17027920    -0.57110
O375        O  0.95514716  0.20358709  0.18126696    -0.55920
C376        C  0.84972422  0.08813512  0.21663675     0.77840
O377        O  0.95941430  0.17133698  0.23604784    -0.58290
O378        O  0.84084793  0.18584750  0.23136775    -0.56740
O379        O  0.93900174  0.11145886  0.13881457    -0.56730
O380        O  0.82480505  0.11189175  0.19654505    -0.55910
O381        O  0.84383086  0.20419881  0.81964068    -0.57110
C382        C  0.91712075  0.12049859  0.87741123     0.75510
O383        O  0.90869738  0.09352041  0.76326615    -0.58270
C384        C  0.82637893  0.20894991  0.78421922     0.75490
C385        C  0.97671836  0.19916998  0.76898304     0.77880
Cd386      Cd  0.89931026  0.15245908  0.79903204     1.37470
O387        O  0.88722006  0.14763169  0.87285322    -0.57110
O388        O  0.96210168  0.20027108  0.80531078    -0.55920
C389        C  0.86170918  0.08628910  0.76328277     0.77840
O390        O  0.96200858  0.17195480  0.74777888    -0.58290
O391        O  0.94058271  0.10944650  0.84636755    -0.56740
O392        O  0.83911322  0.18547058  0.75764563    -0.56730
O393        O  0.83207327  0.11128346  0.77608983    -0.55910
O394        O  0.70807026  0.88773291  0.87266125    -0.57110
C395        C  0.76714002  0.82438087  0.78274705     0.75510
O396        O  0.64612130  0.86765920  0.74281304    -0.58270
C397        C  0.68265952  0.91737266  0.87629370     0.75490
C398        C  0.76225551  0.94685534  0.77055716     0.77880
Cd399      Cd  0.70349965  0.88597890  0.79852221     1.37470
O400        O  0.74719680  0.82801429  0.81740835    -0.57110
O401        O  0.78012691  0.92009195  0.79064721    -0.55920
C402        C  0.62276601  0.84477004  0.76499118     0.77840
O403        O  0.71579538  0.94448693  0.76046001    -0.58290
O404        O  0.76078751  0.85049287  0.75782626    -0.56740
O405        O  0.66464450  0.93141828  0.84420769    -0.56730
O406        O  0.62990136  0.84752836  0.80272164    -0.55910
O407        O  0.68826707  0.91693837  0.03491844    -0.57110
C408        C  0.67664816  0.93555227  0.91564829     0.75510
O409        O  0.61631331  0.02752161  0.99311986    -0.58270
C410        C  0.67875534  0.93254906  0.06830444     0.75490
C411        C  0.77506538  0.00904999  0.99319167     0.77880
Cd412      Cd  0.67539822  0.97292977  0.99282940     1.37470
O413        O  0.68344858  0.91824545  0.94843187    -0.57110
O414        O  0.76974848  0.97445588  0.99056509    -0.55920
C415        C  0.57555320  0.00894476  0.99315015     0.77840
O416        O  0.73450283  0.02771723  0.99569946    -0.58290
O417        O  0.66667076  0.96973310  0.91842849    -0.56740
O418        O  0.66547827  0.96619389  0.06681740    -0.56730
O419        O  0.58057649  0.97403675  0.99309300    -0.55910
O420        O  0.91235592  0.11783387  0.94933124    -0.57110
C421        C  0.92367983  0.10349258  0.06821485     0.75510
O422        O  0.86636229  0.00785504  0.99100470    -0.58270
C423        C  0.92264288  0.10174023  0.91640413     0.75490
C424        C  0.52495071  0.02694473  0.99317315     0.77880
Cd425      Cd  0.92515727  0.06303288  0.99272195     1.37470
O426        O  0.91418697  0.11911252  0.03486311    -0.57110
O427        O  0.51994881  0.06185242  0.99260065    -0.55920
C428        C  0.82572434  0.02645641  0.99321165     0.77840
O429        O  0.98418014  0.00838224  0.99370093    -0.58290
O430        O  0.93645358  0.06972794  0.06670294    -0.56740
O431        O  0.93615612  0.06819449  0.91863940    -0.56730
O432        O  0.83092465  0.06107070  0.99536955    -0.55910
C433        C  0.86554412  0.01983626  0.77600717    -0.08450
C434        C  0.84285939  0.04885925  0.75468424     0.07740
C435        C  0.79749940  0.04245332  0.73343896    -0.02220
C436        C  0.77335172  0.00804393  0.73663039    -0.06670
C437        C  0.79349738  0.97992552  0.76143764     0.06860
C438        C  0.84124095  0.98584408  0.78024018    -0.01700
Br439      Br  0.87382327  0.95146439  0.81643815    -0.01390
H440        H  0.90025939  0.02472664  0.79276196     0.10590
H441        H  0.73754965  0.00397530  0.72121200     0.08790
Br442      Br  0.76719483  0.08006604  0.70032748    -0.01820
C443        C  0.82883310  0.98515579  0.22975314    -0.08450
C444        C  0.77571849  0.98340262  0.22788729     0.07740
C445        C  0.74772312  0.01668847  0.23010958    -0.02220
C446        C  0.77311808  0.05064534  0.22990522    -0.06670
C447        C  0.82618641  0.05238925  0.22772378     0.06860
C448        C  0.85422911  0.01911664  0.22977869    -0.01700
Br449      Br  0.92686187  0.01737352  0.22766091    -0.01390
H450        H  0.85096133  0.95986984  0.22872428     0.10770
H451        H  0.75097985  0.07592840  0.22900729     0.08790
Br452      Br  0.67505783  0.01845100  0.22850989    -0.01820
C453        C  0.76297333  0.30575236  0.21912795    -0.08450
C454        C  0.75325581  0.30628443  0.26099400     0.07740
C455        C  0.76608033  0.27461296  0.28408768    -0.02220
C456        C  0.78715794  0.24376830  0.26518076    -0.06670
C457        C  0.79690650  0.24305357  0.22341497     0.06860
C458        C  0.78460621  0.27472432  0.20023188    -0.01700
Br459      Br  0.79621274  0.27814655  0.14300697    -0.01390
H460        H  0.75291084  0.32943534  0.20068258     0.10770
H461        H  0.79653672  0.22007555  0.28384922     0.08790
Br462      Br  0.75574271  0.26994163  0.34152746    -0.01820
C463        C  0.53595403  0.22493189  0.26564821    -0.08450
C464        C  0.99757189  0.23178530  0.23716072     0.07740
C465        C  0.98239107  0.26875574  0.22987906    -0.02220
C466        C  0.50691089  0.29783359  0.24949697    -0.06670
C467        C  0.54639430  0.29123878  0.27688559     0.06860
C468        C  0.56080725  0.25431528  0.28520394    -0.01700
Br469      Br  0.61683785  0.24232630  0.31985929    -0.01390
H470        H  0.54754937  0.19671242  0.27190959     0.10770
H471        H  0.49528680  0.32601705  0.24294710     0.08790
Br472      Br  0.92661226  0.28199279  0.19532735    -0.01820
C473        C  0.55480683  0.77549641  0.29081188    -0.08450
C474        C  0.55534977  0.74184383  0.26928851     0.07740
C475        C  0.57900658  0.74057101  0.23108995    -0.02220
C476        C  0.59979439  0.77261895  0.21474398    -0.06670
C477        C  0.59894103  0.80646262  0.23582833     0.06860
C478        C  0.57650631  0.80764769  0.27456765    -0.01700
Br479      Br  0.57239734  0.85223659  0.30613198    -0.01390
H480        H  0.53616942  0.77710226  0.31992276     0.10770
H481        H  0.61842887  0.77057050  0.18565577     0.08790
Br482      Br  0.58705821  0.69571512  0.20019340    -0.01820
C483        C  0.79231462  0.75666845  0.20753934    -0.08450
C484        C  0.80704546  0.79270075  0.21877034     0.07740
C485        C  0.84515052  0.79730709  0.24824286    -0.02220
C486        C  0.86615499  0.76639040  0.26705745    -0.06670
C487        C  0.85063677  0.73033161  0.25685180     0.06860
C488        C  0.81388124  0.72550896  0.22625667    -0.01700
Br489      Br  0.78924153  0.67750185  0.21098084    -0.01390
H490        H  0.76239861  0.75275358  0.18544274     0.10770
H491        H  0.89581831  0.77065816  0.28931795     0.08790
Br492      Br  0.87166565  0.84505414  0.26303381    -0.01820
C493        C  0.49786660  0.52152365  0.26281756    -0.08450
C494        C  0.52820007  0.55334372  0.26528766     0.07740
C495        C  0.58133208  0.54940871  0.26295095    -0.02220
C496        C  0.60305655  0.51404119  0.26309256    -0.06670
C497        C  0.57271136  0.48225052  0.26562999     0.06860
C498        C  0.51958359  0.48616932  0.26302322    -0.01700
Br499      Br  0.97452579  0.44447044  0.26073946    -0.01390
H500        H  0.95701990  0.52398049  0.26346645     0.10770
H501        H  0.64390147  0.51157326  0.26396804     0.08790
Br502      Br  0.62636358  0.59109409  0.26052388    -0.01820
C503        C  0.73972689  0.27265430  0.72623919    -0.08450
C504        C  0.75283545  0.30737368  0.74246889     0.07740
C505        C  0.78635863  0.30901118  0.77566355    -0.02220
C506        C  0.80787370  0.27620891  0.79063717    -0.06670
C507        C  0.79603794  0.24167058  0.77317341     0.06860
C508        C  0.76049856  0.24005857  0.74140177    -0.01700
Br509      Br  0.73718541  0.19416521  0.71838358    -0.01390
H510        H  0.71220294  0.27069353  0.70192347     0.10770
H511        H  0.83561768  0.27788441  0.81478980     0.08790
Br512      Br  0.80669464  0.35508864  0.79965843    -0.01820
C513        C  0.56523658  0.25909254  0.70684463    -0.08450
C514        C  0.54920078  0.29450188  0.71915116     0.07740
C515        C  0.50897257  0.29791100  0.74667342    -0.02220
C516        C  0.98701760  0.26624463  0.76279910    -0.06670
C517        C  0.00391797  0.23079882  0.75165663     0.06860
C518        C  0.54274745  0.22719934  0.72285142    -0.01700
Br519      Br  0.56899452  0.17978798  0.70709996    -0.01390
H520        H  0.59684595  0.25622317  0.68626618     0.10770
H521        H  0.95583614  0.26937808  0.78378207     0.08790
Br522      Br  0.98134655  0.34509332  0.76232352    -0.01820
C523        C  0.58194581  0.76182077  0.70223487    -0.08450
C524        C  0.54863773  0.74443090  0.72918422     0.07740
C525        C  0.53617754  0.76265442  0.76581483    -0.02220
C526        C  0.55777790  0.79686706  0.77493569    -0.06670
C527        C  0.59248786  0.81368894  0.74879367     0.06860
C528        C  0.60440024  0.79585813  0.71185416    -0.01700
Br529      Br  0.65431007  0.81422189  0.67485118    -0.01390
H530        H  0.59158051  0.74843218  0.67389553     0.10770
H531        H  0.54844882  0.80994719  0.80352412     0.08790
Br532      Br  0.98874254  0.74378418  0.80472355    -0.01820
C533        C  0.84005996  0.79712884  0.74807275    -0.08450
C534        C  0.79623034  0.79155396  0.77078988     0.07740
C535        C  0.77847468  0.75520948  0.77718782    -0.02220
C536        C  0.80556162  0.72505815  0.76143972    -0.06670
C537        C  0.84899077  0.73084954  0.73799702     0.06860
C538        C  0.86634307  0.76736881  0.73158691    -0.01700
Br539      Br  0.92667563  0.77902030  0.70192272    -0.01390
H540        H  0.85369275  0.82500437  0.74269841     0.10770
H541        H  0.79178448  0.69717593  0.76633170     0.08790
Br542      Br  0.71495691  0.74553620  0.80309616    -0.01820
C543        C  0.56132406  0.54451003  0.76014610    -0.08450
C544        C  0.51354553  0.54797260  0.74184221     0.07740
C545        C  0.48911341  0.51609639  0.72695315    -0.02220
C546        C  0.51465433  0.48229995  0.72692180    -0.06670
C547        C  0.56483215  0.47944262  0.74105411     0.06860
C548        C  0.58677983  0.51043634  0.76058941    -0.01700
Br549      Br  0.65167639  0.50898584  0.78688929    -0.01390
H550        H  0.57995482  0.56881366  0.77241310     0.10770
H551        H  0.49630155  0.45879560  0.71269004     0.08790
Br552      Br  0.92456759  0.51782529  0.69995308    -0.01820
loop_ 
_geom_bond_atom_site_label_1 
_geom_bond_atom_site_label_2 
_geom_bond_distance 
_geom_bond_site_symmetry_2 
_ccdc_geom_bond_type 
O1            C4   1.270       .  A
O1         Cd282   2.467   1_455  S
C2           O11   1.265       .  A
C2            O7   1.267       .  A
C2           C54   1.464       .  S
O3          C285   1.269       .  A
O3           Cd6   2.450       .  S
C4           O12   1.264       .  A
C4          C248   1.479       .  S
C5           O10   1.268       .  A
C5            O8   1.262       .  A
C5          C261   1.469       .  S
Cd6          O11   2.453       .  S
Cd6           O7   2.465       .  S
Cd6          O10   2.476       .  S
Cd6           O8   2.403       .  S
Cd6         O277   2.467       .  S
Cd6         O289   2.428       .  S
Cd6         O288   2.406       .  S
C9           O13   1.267   1_655  A
C9          O279   1.269       .  A
C9          C268   1.470   1_655  S
O12        Cd282   2.406   1_455  S
O13        Cd282   2.428   1_455  S
O14          C17   1.266       .  A
O14         Cd19   2.451       .  S
C15          O24   1.263       .  A
C15          O20   1.268       .  A
C15         C238   1.466       .  S
O16          C22   1.269       .  A
O16         Cd19   2.488       .  S
C17          O25   1.266       .  A
C17          C69   1.464       .  S
C18          O23   1.271       .  A
C18          O21   1.267       .  A
C18         C271   1.485       .  S
Cd19         O26   2.391       .  S
Cd19         O25   2.467       .  S
Cd19         O24   2.394       .  S
Cd19         O20   2.472       .  S
Cd19         O23   2.474       .  S
Cd19         O21   2.400       .  S
C22          O26   1.263       .  A
C22         C228   1.474       .  S
O27          C30   1.271       .  A
O27        Cd308   2.489   1_455  S
C28          O37   1.265       .  A
C28          O33   1.268       .  A
C28          C56   1.466       .  S
O29          C35   1.269       .  A
O29         Cd32   2.481       .  S
C30          O38   1.263       .  A
C30         C198   1.478       .  S
C31          O34   1.266       .  A
C31         O312   1.271   1_455  A
C31         C218   1.479       .  S
Cd32         O39   2.403       .  S
Cd32         O37   2.452       .  S
Cd32         O33   2.471       .  S
Cd32         O36   2.468       .  S
Cd32        O303   2.489       .  S
Cd32        O314   2.392       .  S
Cd32        O310   2.421       .  S
O34        Cd308   2.421   1_455  S
C35          O39   1.264       .  A
C35         C211   1.477       .  S
O36         C307   1.271       .  A
O38        Cd308   2.392   1_455  S
O40          C43   1.269       .  A
O40         Cd45   2.470       .  S
C41          O50   1.264       .  A
C41          O46   1.268       .  A
C41         C191   1.474       .  S
O42          C48   1.272       .  A
O42         Cd45   2.470       .  S
C43          O51   1.265       .  A
C43          C67   1.466       .  S
C44          O49   1.269       .  A
C44          O47   1.261       .  A
C44         C178   1.485       .  S
Cd45         O52   2.415       .  S
Cd45         O51   2.454       .  S
Cd45         O50   2.406       .  S
Cd45         O46   2.484       .  S
Cd45         O49   2.480       .  S
Cd45         O47   2.405       .  S
C48          O52   1.267       .  A
C48         C221   1.479       .  S
O53          C56   1.264       .  A
O53         Cd58   2.476       .  S
C54          O63   1.264       .  A
C54          O59   1.263       .  A
O55          C61   1.269       .  A
O55         Cd58   2.511       .  S
C56          O64   1.265       .  A
C57          O62   1.268       .  A
C57          O60   1.259       .  A
C57         C350   1.478       .  S
Cd58         O65   2.504       .  S
Cd58         O64   2.467       .  S
Cd58         O63   2.470       .  S
Cd58         O59   2.470       .  S
Cd58         O62   2.525       .  S
Cd58         O60   2.490       .  S
C61          O65   1.267       .  A
C61          C70   1.485       .  S
O66          C69   1.263       .  A
O66         Cd71   2.462       .  S
C67          O76   1.265       .  A
C67          O72   1.263       .  A
O68          C74   1.268       .  A
O68         Cd71   2.523       .  S
C69          O77   1.265       .  A
C70          O75   1.269       .  A
C70          O73   1.267       .  A
Cd71         O78   2.492       .  S
Cd71         O77   2.478       .  S
Cd71         O76   2.474       .  S
Cd71         O72   2.475       .  S
Cd71         O75   2.513       .  S
Cd71         O73   2.504       .  S
C74          O78   1.260       .  A
C74         C333   1.478       .  S
O79          C82   1.269       .  A
O79         Cd84   2.486       .  S
C80          O89   1.265       .  A
C80          O85   1.268       .  A
C80         C134   1.467       .  S
O81          C87   1.267       .  A
O81         Cd84   2.479       .  S
C82          O90   1.263       .  A
C82         C208   1.474       .  S
C83          O88   1.270       .  A
C83          O86   1.268       .  A
C83         C168   1.481       .  S
Cd84         O91   2.412       .  S
Cd84         O90   2.403       .  S
Cd84         O89   2.454       .  S
Cd84         O85   2.473       .  S
Cd84         O88   2.465       .  S
Cd84         O86   2.419       .  S
C87          O91   1.264       .  A
C87         C201   1.482       .  S
O92          C95   1.268       .  A
O92         Cd97   2.468       .  S
C93         O102   1.265       .  A
C93          O98   1.270       .  A
C93         C181   1.486       .  S
O94         C100   1.270       .  A
O94         Cd97   2.465       .  S
C95         O103   1.265       .  A
C95         C145   1.466       .  S
C96         O101   1.269       .  A
C96          O99   1.263       .  A
C96         C188   1.476       .  S
Cd97        O104   2.420       .  S
Cd97        O103   2.455       .  S
Cd97        O102   2.391       .  S
Cd97         O98   2.488       .  S
Cd97        O101   2.480       .  S
Cd97         O99   2.410       .  S
C100        O104   1.268       .  A
C100        C171   1.481       .  S
O105        C108   1.268       .  A
O105       Cd110   2.469       .  S
C106        O115   1.264       .  A
C106        O111   1.266       .  A
C106        C147   1.463       .  S
O107        C113   1.269       .  A
O107       Cd110   2.444       .  S
C108        O116   1.265       .  A
C108        C231   1.472       .  S
C109        O114   1.266       .  A
C109        O112   1.262       .  A
C109        C241   1.468       .  S
Cd110       O117   2.435       .  S
Cd110       O116   2.409       .  S
Cd110       O115   2.457       .  S
Cd110       O111   2.467       .  S
Cd110       O114   2.476       .  S
Cd110       O112   2.404       .  S
C113        O117   1.267       .  A
C113        C158   1.468       .  S
O118        C121   1.268       .  A
O118       Cd123   2.452       .  S
C119        O128   1.264       .  A
C119        O124   1.268       .  A
C119        C258   1.466       .  S
O120        C126   1.268       .  A
O120       Cd123   2.469       .  S
C121        O129   1.267       .  A
C121        C132   1.464       .  S
C122        O127   1.273       .  A
C122        O125   1.263       .  A
C122        C161   1.484       .  S
Cd123       O130   2.395       .  S
Cd123       O129   2.453       .  S
Cd123       O128   2.396       .  S
Cd123       O124   2.469       .  S
Cd123       O127   2.483       .  S
Cd123       O125   2.386       .  S
C126        O130   1.264       .  A
C126        C251   1.477       .  S
O131        C134   1.263       .  A
O131       Cd136   2.478   1_554  S
C132        O141   1.265       .  A
C132        O137   1.264       .  A
O133        C139   1.269       .  A
O133       Cd136   2.512   1_545  S
C134        O142   1.265       .  A
C135        O140   1.268       .  A
C135        O138   1.260   1_545  A
C135        C152   1.479       .  S
Cd136       O143   2.505       .  S
Cd136       O142   2.471   1_556  S
Cd136       O141   2.470       .  S
Cd136       O137   2.466       .  S
Cd136       O140   2.523   1_565  S
Cd136       O138   2.494       .  S
C139        O143   1.267   1_545  A
C139        C148   1.485       .  S
O144        C147   1.262       .  A
O144       Cd149   2.468       .  S
C145        O154   1.265       .  A
C145        O150   1.263       .  A
O146        C152   1.268       .  A
O146       Cd149   2.528       .  S
C147        O155   1.264       .  A
C148        O151   1.267       .  A
C148        O429   1.269   1_455  A
Cd149       O156   2.492       .  S
Cd149       O155   2.473       .  S
Cd149       O154   2.472   1_556  S
Cd149       O150   2.472   1_556  S
Cd149       O153   2.513       .  S
Cd149       O427   2.504       .  S
O151       Cd425   2.504   1_455  S
C152        O156   1.259       .  A
O153        C424   1.269       .  A
C157        C158   1.397       .  A
C157        C162   1.393   1_545  A
C157        H164   1.084       .  S
C158        C159   1.405       .  A
C159        C160   1.402       .  A
C159       Br166   1.918       .  S
C160        C161   1.409   1_545  A
C160        H165   1.082       .  S
C161        C162   1.420       .  A
C162       Br163   1.925       .  S
C167        C168   1.405       .  A
C167        C172   1.398   1_565  A
C167        H174   1.084       .  S
C168        C169   1.412   1_565  A
C169        C170   1.398       .  A
C169       Br176   1.921       .  S
C170        C171   1.405       .  A
C170        H175   1.084       .  S
C171        C172   1.412       .  A
C172       Br173   1.921       .  S
C177        C178   1.408       .  A
C177        C182   1.403       .  A
C177        H184   1.083       .  S
C178        C179   1.416       .  A
C179        C180   1.392       .  A
C179       Br186   1.926       .  S
C180        C181   1.404       .  A
C180        H185   1.084       .  S
C181        C182   1.414       .  A
C182       Br183   1.920       .  S
C187        C192   1.403       .  A
C187        C464   1.403   1_455  A
C187        H194   1.084       .  S
C188        C189   1.414       .  A
C188        C463   1.403       .  A
C189        C466   1.392       .  A
C189       Br196   1.921       .  S
C190        C191   1.399       .  A
C190        C465   1.392   1_455  A
C190        H195   1.085   1_455  S
C191        C192   1.413       .  A
C192       Br193   1.917       .  S
C197        C198   1.406       .  A
C197        C202   1.404       .  A
C197        H204   1.083       .  S
C198        C199   1.411       .  A
C199        C200   1.392       .  A
C199       Br206   1.924       .  S
C200        C201   1.405       .  A
C200        H205   1.083       .  S
C201        C202   1.413       .  A
C202       Br203   1.919       .  S
C207        C208   1.407       .  A
C207        C212   1.404       .  A
C207        H214   1.083       .  S
C208        C209   1.407       .  A
C209        C210   1.392       .  A
C209       Br216   1.923       .  S
C210        C211   1.405       .  A
C210        H215   1.083       .  S
C211        C212   1.409       .  A
C212       Br213   1.918       .  S
C217        C218   1.404   1_655  A
C217        C222   1.399   1_655  A
C217        H500   1.083       .  S
C218        C219   1.413       .  A
C219        C220   1.399       .  A
C219       Br226   1.921       .  S
C220        C221   1.404       .  A
C220        H225   1.083       .  S
C221        C222   1.412       .  A
C222       Br499   1.922   1_455  S
Br223       C498   1.922       .  S
H224        C493   1.083       .  S
C227        C228   1.406       .  A
C227        C232   1.391       .  A
C227        H234   1.084       .  S
C228        C229   1.408       .  A
C229        C230   1.403       .  A
C229       Br236   1.918       .  S
C230        C231   1.408       .  A
C230        H235   1.083       .  S
C231        C232   1.407       .  A
C232       Br233   1.923       .  S
C237        C238   1.406       .  A
C237        C242   1.402       .  A
C237        H244   1.083       .  S
C238        C239   1.406       .  A
C239        C516   1.391   1_455  A
C239       Br522   1.923   1_455  S
C240        C241   1.404       .  A
C240        C515   1.391       .  A
C240        H245   1.084       .  S
C241        C518   1.407       .  A
C242        C517   1.407       .  A
C242       Br243   1.918       .  S
Br246       C515   1.923       .  S
C247        C248   1.404       .  A
C247        C252   1.401       .  A
C247        H254   1.084       .  S
C248        C249   1.416       .  A
C249        C250   1.393       .  A
C249       Br532   1.924   1_455  S
C250        C251   1.402       .  A
C250        H255   1.084       .  S
C251        C252   1.415       .  A
C252       Br253   1.921       .  S
Br256       C525   1.924       .  S
C257        C258   1.397       .  A
C257        C262   1.390       .  A
C257        H264   1.085       .  S
C258        C259   1.411       .  A
C259        C260   1.402       .  A
C259       Br266   1.919       .  S
C260        C261   1.402       .  A
C260        H265   1.084       .  S
C261        C262   1.413       .  A
C262       Br263   1.921       .  S
C267        C268   1.403       .  A
C267        C272   1.401       .  A
C267        H274   1.084       .  S
C268        C269   1.407   1_455  A
C269        C270   1.393   1_655  A
C269       Br552   1.922       .  S
C270        C271   1.407       .  A
C270        H275   1.083   1_455  S
C271        C272   1.414       .  A
C272       Br273   1.920       .  S
Br276       C545   1.922       .  S
O277        C280   1.270       .  A
C278        O287   1.265       .  A
C278        O283   1.267       .  A
C278        C330   1.464       .  S
O279       Cd282   2.450       .  S
C280        O288   1.264       .  A
C280        C524   1.479       .  S
C281        O286   1.268       .  A
C281        O284   1.262       .  A
C281        C537   1.469       .  S
Cd282       O287   2.453       .  S
Cd282       O283   2.465       .  S
Cd282       O286   2.476       .  S
Cd282       O284   2.403       .  S
C285        O289   1.267       .  A
C285        C544   1.470       .  S
O290        C293   1.266       .  A
O290       Cd295   2.451       .  S
C291        O300   1.263       .  A
C291        O296   1.268       .  A
C291        C514   1.466       .  S
O292        C298   1.269       .  A
O292       Cd295   2.488       .  S
C293        O301   1.266       .  A
C293        C345   1.464       .  S
C294        O299   1.271       .  A
C294        O297   1.267       .  A
C294        C547   1.485       .  S
Cd295       O302   2.391       .  S
Cd295       O301   2.467       .  S
Cd295       O300   2.394       .  S
Cd295       O296   2.472       .  S
Cd295       O299   2.474       .  S
Cd295       O297   2.400       .  S
C298        O302   1.263       .  A
C298        C504   1.474       .  S
O303        C306   1.271       .  A
C304        O313   1.265       .  A
C304        O309   1.268       .  A
C304        C332   1.466       .  S
O305        C311   1.269       .  A
O305       Cd308   2.481       .  S
C306        O314   1.263       .  A
C306        C474   1.478       .  S
C307        O310   1.266       .  A
C307        C494   1.479       .  S
Cd308       O315   2.403       .  S
Cd308       O313   2.452       .  S
Cd308       O309   2.471       .  S
Cd308       O312   2.468       .  S
C311        O315   1.264       .  A
C311        C487   1.477       .  S
O316        C319   1.269       .  A
O316       Cd321   2.470       .  S
C317        O326   1.264       .  A
C317        O322   1.268       .  A
C317        C467   1.474       .  S
O318        C324   1.272       .  A
O318       Cd321   2.470       .  S
C319        O327   1.265       .  A
C319        C343   1.466       .  S
C320        O325   1.269       .  A
C320        O323   1.261       .  A
C320        C454   1.485       .  S
Cd321       O328   2.415       .  S
Cd321       O327   2.454       .  S
Cd321       O326   2.406       .  S
Cd321       O322   2.484       .  S
Cd321       O325   2.480       .  S
Cd321       O323   2.405       .  S
C324        O328   1.267       .  A
C324        C497   1.479       .  S
O329        C332   1.264       .  A
O329       Cd334   2.476       .  S
C330        O339   1.264       .  A
C330        O335   1.263       .  A
O331        C337   1.269       .  A
O331       Cd334   2.511       .  S
C332        O340   1.265       .  A
C333        O338   1.268   1_455  A
C333        O336   1.259       .  A
Cd334       O341   2.504       .  S
Cd334       O340   2.467       .  S
Cd334       O339   2.470       .  S
Cd334       O335   2.470       .  S
Cd334       O338   2.525       .  S
Cd334       O336   2.490   1_655  S
C337        O341   1.267       .  A
C337        C346   1.485       .  S
O342        C345   1.263       .  A
O342       Cd347   2.462       .  S
C343        O352   1.265       .  A
C343        O348   1.263       .  A
O344        C350   1.268       .  A
O344       Cd347   2.523       .  S
C345        O353   1.265       .  A
C346        O351   1.269       .  A
C346        O349   1.267       .  A
Cd347       O354   2.492       .  S
Cd347       O353   2.478       .  S
Cd347       O352   2.474       .  S
Cd347       O348   2.475       .  S
Cd347       O351   2.513       .  S
Cd347       O349   2.504       .  S
C350        O354   1.260       .  A
O355        C358   1.269       .  A
O355       Cd360   2.486       .  S
C356        O365   1.265       .  A
C356        O361   1.268       .  A
C356        C410   1.467       .  S
O357        C363   1.267       .  A
O357       Cd360   2.479       .  S
C358        O366   1.263       .  A
C358        C484   1.474       .  S
C359        O364   1.270       .  A
C359        O362   1.268       .  A
C359        C444   1.481       .  S
Cd360       O367   2.412       .  S
Cd360       O366   2.403       .  S
Cd360       O365   2.454       .  S
Cd360       O361   2.473       .  S
Cd360       O364   2.465       .  S
Cd360       O362   2.419       .  S
C363        O367   1.264       .  A
C363        C477   1.482       .  S
O368        C371   1.268       .  A
O368       Cd373   2.468       .  S
C369        O378   1.265       .  A
C369        O374   1.270       .  A
C369        C457   1.486       .  S
O370        C376   1.270       .  A
O370       Cd373   2.465       .  S
C371        O379   1.265       .  A
C371        C421   1.466       .  S
C372        O377   1.269       .  A
C372        O375   1.263       .  A
C372        C464   1.476       .  S
Cd373       O380   2.420       .  S
Cd373       O379   2.455       .  S
Cd373       O378   2.391       .  S
Cd373       O374   2.488       .  S
Cd373       O377   2.480       .  S
Cd373       O375   2.410       .  S
C376        O380   1.268       .  A
C376        C447   1.481       .  S
O381        C384   1.268       .  A
O381       Cd386   2.469       .  S
C382        O391   1.264       .  A
C382        O387   1.266       .  A
C382        C423   1.463       .  S
O383        C389   1.269       .  A
O383       Cd386   2.444       .  S
C384        O392   1.265       .  A
C384        C507   1.472       .  S
C385        O390   1.266       .  A
C385        O388   1.262       .  A
C385        C517   1.468   1_655  S
Cd386       O393   2.435       .  S
Cd386       O392   2.409       .  S
Cd386       O391   2.457       .  S
Cd386       O387   2.467       .  S
Cd386       O390   2.476       .  S
Cd386       O388   2.404       .  S
C389        O393   1.267       .  A
C389        C434   1.468       .  S
O394        C397   1.268       .  A
O394       Cd399   2.452       .  S
C395        O404   1.264       .  A
C395        O400   1.268       .  A
C395        C534   1.466       .  S
O396        C402   1.268       .  A
O396       Cd399   2.469       .  S
C397        O405   1.267       .  A
C397        C408   1.464       .  S
C398        O403   1.273       .  A
C398        O401   1.263       .  A
C398        C437   1.484       .  S
Cd399       O406   2.395       .  S
Cd399       O405   2.453       .  S
Cd399       O404   2.396       .  S
Cd399       O400   2.469       .  S
Cd399       O403   2.483       .  S
Cd399       O401   2.386       .  S
C402        O406   1.264       .  A
C402        C527   1.477       .  S
O407        C410   1.263       .  A
O407       Cd412   2.478   1_554  S
C408        O417   1.265       .  A
C408        O413   1.264       .  A
O409        C415   1.269       .  A
O409       Cd412   2.512   1_545  S
C410        O418   1.265       .  A
C411        O416   1.268       .  A
C411        O414   1.260   1_545  A
C411        C428   1.479       .  S
Cd412       O419   2.505       .  S
Cd412       O418   2.471   1_556  S
Cd412       O417   2.470       .  S
Cd412       O413   2.466       .  S
Cd412       O416   2.523   1_565  S
Cd412       O414   2.494       .  S
C415        O419   1.267   1_545  A
C415        C424   1.485       .  S
O420        C423   1.262       .  A
O420       Cd425   2.468       .  S
C421        O430   1.265       .  A
C421        O426   1.263       .  A
O422        C428   1.268       .  A
O422       Cd425   2.528       .  S
C423        O431   1.264       .  A
C424        O427   1.267       .  A
Cd425       O432   2.492       .  S
Cd425       O431   2.473       .  S
Cd425       O430   2.472   1_556  S
Cd425       O426   2.472   1_556  S
Cd425       O429   2.513       .  S
C428        O432   1.259       .  A
C433        C434   1.397       .  A
C433        C438   1.393   1_545  A
C433        H440   1.084       .  S
C434        C435   1.405       .  A
C435        C436   1.402       .  A
C435       Br442   1.918       .  S
C436        C437   1.409   1_545  A
C436        H441   1.082       .  S
C437        C438   1.420       .  A
C438       Br439   1.925       .  S
C443        C444   1.405       .  A
C443        C448   1.398   1_565  A
C443        H450   1.084       .  S
C444        C445   1.412   1_565  A
C445        C446   1.398       .  A
C445       Br452   1.921       .  S
C446        C447   1.405       .  A
C446        H451   1.084       .  S
C447        C448   1.412       .  A
C448       Br449   1.921       .  S
C453        C454   1.408       .  A
C453        C458   1.403       .  A
C453        H460   1.083       .  S
C454        C455   1.416       .  A
C455        C456   1.392       .  A
C455       Br462   1.926       .  S
C456        C457   1.404       .  A
C456        H461   1.084       .  S
C457        C458   1.414       .  A
C458       Br459   1.920       .  S
C463        C468   1.403       .  A
C463        H470   1.084       .  S
C464        C465   1.414       .  A
C465       Br472   1.921       .  S
C466        C467   1.399       .  A
C466        H471   1.085       .  S
C467        C468   1.413       .  A
C468       Br469   1.917       .  S
C473        C474   1.406       .  A
C473        C478   1.404       .  A
C473        H480   1.083       .  S
C474        C475   1.411       .  A
C475        C476   1.392       .  A
C475       Br482   1.924       .  S
C476        C477   1.405       .  A
C476        H481   1.083       .  S
C477        C478   1.413       .  A
C478       Br479   1.919       .  S
C483        C484   1.407       .  A
C483        C488   1.404       .  A
C483        H490   1.083       .  S
C484        C485   1.407       .  A
C485        C486   1.392       .  A
C485       Br492   1.923       .  S
C486        C487   1.405       .  A
C486        H491   1.083       .  S
C487        C488   1.409       .  A
C488       Br489   1.918       .  S
C493        C494   1.404       .  A
C493        C498   1.399       .  A
C494        C495   1.413       .  A
C495        C496   1.399       .  A
C495       Br502   1.921       .  S
C496        C497   1.404       .  A
C496        H501   1.083       .  S
C497        C498   1.412       .  A
C503        C504   1.406       .  A
C503        C508   1.391       .  A
C503        H510   1.084       .  S
C504        C505   1.408       .  A
C505        C506   1.403       .  A
C505       Br512   1.918       .  S
C506        C507   1.408       .  A
C506        H511   1.083       .  S
C507        C508   1.407       .  A
C508       Br509   1.923       .  S
C513        C514   1.406       .  A
C513        C518   1.402       .  A
C513        H520   1.083       .  S
C514        C515   1.406       .  A
C516        C517   1.404   1_655  A
C516        H521   1.084       .  S
C518       Br519   1.918       .  S
C523        C524   1.404       .  A
C523        C528   1.401       .  A
C523        H530   1.084       .  S
C524        C525   1.416       .  A
C525        C526   1.393       .  A
C526        C527   1.402       .  A
C526        H531   1.084       .  S
C527        C528   1.415       .  A
C528       Br529   1.921       .  S
C533        C534   1.397       .  A
C533        C538   1.390       .  A
C533        H540   1.085       .  S
C534        C535   1.411       .  A
C535        C536   1.402       .  A
C535       Br542   1.919       .  S
C536        C537   1.402       .  A
C536        H541   1.084       .  S
C537        C538   1.413       .  A
C538       Br539   1.921       .  S
C543        C544   1.403       .  A
C543        C548   1.401       .  A
C543        H550   1.084       .  S
C544        C545   1.407       .  A
C545        C546   1.393       .  A
C546        C547   1.407       .  A
C546        H551   1.083       .  S
C547        C548   1.414       .  A
C548       Br549   1.920       .  S
