geometry optimzed in LAMMPS
_audit_creation_date              2020-11-30 
_audit_creation_method            'lammps2cif' 
_symmetry_space_group_name_H-M    'P1' 
_symmetry_Int_Tables_number       1 
_symmetry_cell_setting            triclinic 
loop_ 
_symmetry_equiv_pos_as_xyz 
  x,y,z 
_cell_length_a                    59.30580456 
_cell_length_b                    59.40859062344805 
_cell_length_c                    22.2422487888398 
_cell_angle_alpha                 91.98347848540288 
_cell_angle_beta                  89.41744654807054 
_cell_angle_gamma                 120.02202305375585 
loop_ 
_atom_site_label 
_atom_site_type_symbol 
_atom_site_fract_x 
_atom_site_fract_y 
_atom_site_fract_z 
_atom_site_charge 
C1          C  0.39837110  0.20555404  0.20256389     0.79800
N2          N  0.39673681  0.19428858  0.25599558    -0.78500
C3          C  0.39604959  0.17123073  0.25753500     0.82300
N4          N  0.39727578  0.15948221  0.20555024    -0.78400
C5          C  0.39954633  0.17053506  0.15179845     0.82400
N6          N  0.39990395  0.19364081  0.15024219    -0.80100
C7          C  0.21358967  0.79518220  0.73561798     0.79800
N8          N  0.20329540  0.78793133  0.79138612    -0.78500
C9          C  0.17890977  0.76734930  0.79753059     0.82300
N10         N  0.16506306  0.75376194  0.74787148    -0.78400
C11         C  0.17519526  0.76043340  0.69206037     0.82400
N12         N  0.19943192  0.78127151  0.68625532    -0.80100
C13         C  0.76841160  0.16674956  0.18443781     0.79800
N14         N  0.77918589  0.17687727  0.23958490    -0.78500
C15         C  0.80337135  0.19795340  0.24449814     0.82300
N16         N  0.81671545  0.20911659  0.19420548    -0.78400
C17         C  0.80625749  0.19981548  0.13874558     0.82400
N18         N  0.78196220  0.17850230  0.13392318    -0.80100
C19         C  0.57989658  0.75692531  0.65884598     0.79800
N20         N  0.58101298  0.76909257  0.71251237    -0.78500
C21         C  0.58484055  0.79356306  0.71491911     0.82300
N22         N  0.58745218  0.80597814  0.66314511    -0.78400
C23         C  0.58590137  0.79410611  0.60882688     0.82400
N24         N  0.58201116  0.76941753  0.60679722    -0.80100
C25         C  0.79139862  0.54618421  0.15556023     0.79800
N26         N  0.78249624  0.54845331  0.10085751    -0.78500
C27         C  0.76102449  0.55117470  0.09767543     0.82300
N28         N  0.74869467  0.55159652  0.14886712    -0.78400
C29         C  0.75705945  0.54888955  0.20308056     0.82400
N30         N  0.77836820  0.54621532  0.20616344    -0.80100
C31         C  0.17524110  0.40344463  0.74085020     0.79800
N32         N  0.18544595  0.40187066  0.68682499    -0.78500
C33         C  0.20696465  0.39951453  0.68421749     0.82300
N34         N  0.21843713  0.39884079  0.73578348    -0.78400
C35         C  0.20895963  0.40093246  0.79007633     0.82400
N36         N  0.18719186  0.40313887  0.79267760    -0.80100
O37         O  0.92153448  0.32333172  0.58909417    -0.81300
O38         O  0.96434940  0.41306657  0.79254254    -0.66000
O39         O  0.93553308  0.34923695  0.70069058    -1.12600
C40         C  0.85833382  0.35536378  0.71509031     1.05600
O41         O  0.93136564  0.39658015  0.85553112    -0.79200
O42         O  0.88855635  0.35041561  0.83760896    -0.66800
Ni43       Ni  0.95293439  0.34970622  0.62760272     1.34900
C44         C  0.88585984  0.32896513  0.81745332     0.84400
O45         O  0.98319316  0.38265933  0.75443705    -0.79700
O46         O  0.98726799  0.37485707  0.65774002    -0.90000
C47         C  0.95459177  0.41363413  0.84307993     0.83900
O48         O  0.94777484  0.37622361  0.59598051    -0.68200
O49         O  0.86931885  0.37172165  0.75884892    -0.87500
C50         C  0.95671374  0.39885194  0.61984345     0.84800
C51         C  0.99665353  0.38174340  0.71078394     1.06300
H52         H  0.91904750  0.39149153  0.70738133     0.38100
O53         O  0.91759191  0.37878170  0.73540705    -1.10100
O54         O  0.89060859  0.32510258  0.76339709    -0.66800
Ni55       Ni  0.90175873  0.34598545  0.69305130     1.26300
O56         O  0.96291956  0.40357584  0.67563179    -0.67000
O57         O  0.86858065  0.34372217  0.68696736    -0.79300
C58         C  0.89760673  0.30922522  0.60210609     0.84100
O59         O  0.88730450  0.31397886  0.64742400    -0.66500
Ni60       Ni  0.90100049  0.38367548  0.80433756     1.27400
Ni61       Ni  0.95072150  0.38154785  0.74531716     1.26100
H62         H  0.93476550  0.33588189  0.72566645     0.38700
O63         O  0.05654687  0.63911545  0.10898838    -0.81300
O64         O  0.00266926  0.55035056  0.30155361    -0.66000
O65         O  0.03604798  0.61416603  0.21641565    -1.12600
C66         C  0.11109615  0.60549170  0.25162062     1.05600
O67         O  0.03329541  0.56949137  0.37046975    -0.79200
O68         O  0.07959135  0.61268677  0.36372106    -0.66800
Ni69       Ni  0.02329580  0.61299613  0.13724879     1.34900
C70         C  0.08287258  0.63435811  0.34749230     0.84400
O71         O  0.98488065  0.57978843  0.25275593    -0.79700
O72         O  0.98764346  0.58811827  0.15538573    -0.90000
C73         C  0.01171351  0.55030316  0.35310483     0.83900
O74         O  0.03014871  0.58610538  0.11075328    -0.68200
O75         O  0.09701061  0.58795770  0.28856922    -0.87500
C76         C  0.01931442  0.56357889  0.13248081     0.84800
C77         C  0.97441774  0.58014304  0.20326632     1.06300
H78         H  0.05184222  0.57228277  0.22772125     0.38100
O79         O  0.05190144  0.58482705  0.25661700    -1.10100
O80         O  0.07799594  0.63824105  0.29435593    -0.66800
Ni81       Ni  0.07019140  0.61754566  0.22013188     1.26300
O82         O  0.00985912  0.55935438  0.18534253    -0.67000
O83         O  0.10351483  0.61924522  0.22458329    -0.79300
C84         C  0.07926802  0.65404951  0.13036210     0.84100
O85         O  0.08708359  0.64974503  0.17935510    -0.66500
Ni86       Ni  0.06482508  0.57885053  0.32774869     1.27400
Ni87       Ni  0.01825173  0.58178241  0.25678446     1.26100
H88         H  0.03548845  0.62771735  0.24049152     0.38700
O89         O  0.39392298  0.04385531  0.57312040    -0.81300
O90         O  0.43743830  0.99984970  0.77163001    -0.66000
O91         O  0.40326910  0.02876953  0.68360205    -1.12600
C92         C  0.48807708  0.10420697  0.69716351     1.05600
O93         O  0.45312693  0.03387961  0.83434307    -0.79200
O94         O  0.45516468  0.07915240  0.81793316    -0.66800
Ni95       Ni  0.38705533  0.01194520  0.60895229     1.34900
C96         C  0.43543535  0.08085269  0.80361332     0.84400
O97         O  0.38837926  0.98103044  0.73228802    -0.79700
O98         O  0.37627776  0.97743343  0.63624035    -0.90000
C99         C  0.44793460  0.01074971  0.82183012     0.83900
O100        O  0.41864394  0.01569070  0.57692720    -0.68200
O101        O  0.49383716  0.09245184  0.73584891    -0.87500
C102        C  0.43178737  0.00636223  0.59900061     0.84800
C103        C  0.37414781  0.96777603  0.68773431     1.06300
H104        H  0.46133513  0.04425168  0.68596390     0.38100
O105        O  0.45044466  0.04607099  0.71603762    -1.10100
O106        O  0.42434370  0.07349684  0.75230614    -0.66800
Ni107      Ni  0.43399826  0.06234171  0.67860832     1.26300
O108        O  0.42984083  0.00033488  0.65417013    -0.67000
O109        O  0.46535647  0.09522662  0.67463118    -0.79300
C110        C  0.40322167  0.06760213  0.58999735     0.84100
O111        O  0.41686611  0.07721324  0.63745846    -0.66500
Ni112      Ni  0.47277273  0.06268093  0.78297640     1.27400
Ni113      Ni  0.41988594  0.01329188  0.72541414     1.26100
H114        H  0.39051664  0.02966517  0.70938972     0.38700
O115        O  0.57817339  0.91573129  0.05455989    -0.81300
O116        O  0.54287350  0.96509451  0.26844404    -0.66000
O117        O  0.57287754  0.93332845  0.16806246    -1.12600
C118        C  0.49037432  0.85759792  0.20371197     1.05600
O119        O  0.53377732  0.93494482  0.33372656    -0.79200
O120        O  0.53423655  0.89030126  0.31584565    -0.66800
Ni121      Ni  0.58475298  0.94806373  0.09098150     1.34900
C122        C  0.55049275  0.88556660  0.28925599     0.84400
O123        O  0.59003359  0.98337177  0.21626383    -0.79700
O124        O  0.59502035  0.98318051  0.11733323    -0.90000
C125        C  0.53447516  0.95580129  0.31976962     0.83900
O126        O  0.55102123  0.94140076  0.06797302    -0.68200
O127        O  0.48896100  0.87008137  0.25021300    -0.87500
C128        C  0.53906094  0.95151299  0.09485983     0.84800
C129        C  0.60137812  0.99482996  0.16860554     1.06300
H130        H  0.51478521  0.91705216  0.19165052     0.38100
O131        O  0.52808555  0.91667276  0.21552652    -1.10100
O132        O  0.55572451  0.88925824  0.23359449    -0.66800
Ni133      Ni  0.54187820  0.89932463  0.16782847     1.26300
O134        O  0.54375728  0.95935989  0.15002610    -0.67000
O135        O  0.51009915  0.86631508  0.16902618    -0.79300
C136        C  0.56922267  0.89230049  0.06912060     0.84100
O137        O  0.55620844  0.88318777  0.11666130    -0.66500
Ni138      Ni  0.51205293  0.90282397  0.29004899     1.27400
Ni139      Ni  0.55852354  0.95026740  0.21673833     1.26100
H140        H  0.58695422  0.93330834  0.18946441     0.38700
C141        C  0.63155838  0.28498159  0.62025292     0.79800
N142        N  0.62641300  0.30479119  0.61987158    -0.78500
C143        C  0.64604819  0.32985471  0.61927230     0.82300
N144        N  0.67116516  0.33513893  0.61975738    -0.78400
C145        C  0.67660391  0.31544441  0.62078749     0.82400
N146        N  0.65666855  0.29047970  0.62106525    -0.80100
C147        C  0.34123996  0.67552155  0.20788565     0.79800
N148        N  0.31624212  0.67018519  0.21397559    -0.78500
C149        C  0.29706476  0.64595069  0.22771627     0.82300
N150        N  0.30315798  0.62702077  0.23581313    -0.79000
C151        C  0.32806692  0.63205184  0.23007232     0.82400
N152        N  0.34698276  0.65636507  0.21586890    -0.80100
O153        O  0.39236424  0.44070951  0.08549800    -0.81300
O154        O  0.31857162  0.41530822  0.29148735    -0.66000
O155        O  0.38181787  0.44380627  0.20437107    -1.12600
C156        C  0.37889359  0.36490926  0.22809920     1.05600
O157        O  0.32784774  0.39168343  0.35151831    -0.79200
O158        O  0.38038867  0.41303790  0.34256718    -0.66800
Ni159      Ni  0.38672260  0.46396139  0.13640799     1.34900
C160        C  0.40266932  0.42468903  0.31822146     0.84400
O161        O  0.35025621  0.46284693  0.25088868    -0.79700
O162        O  0.38093516  0.48787556  0.18449503    -0.90000
C163        C  0.31405067  0.40162516  0.33739257     0.83900
O164        O  0.35193211  0.44755026  0.10665704    -0.68200
O165        O  0.37249960  0.36894670  0.28045703    -0.87500
C166        C  0.33061905  0.42916194  0.12521058     0.84800
C167        C  0.36428282  0.48449997  0.22521983     1.06300
H168        H  0.33646725  0.38532027  0.21412585     0.38100
O169        O  0.35078908  0.39801195  0.23891847    -1.10100
O170        O  0.40584122  0.42229008  0.26190259    -0.66800
Ni171      Ni  0.38223249  0.41196356  0.19318289     1.26300
O172        O  0.32791373  0.41929495  0.17624977    -0.67000
O173        O  0.38115524  0.37915677  0.18439786    -0.79300
C174        C  0.41147785  0.43730795  0.09451582     0.84100
O175        O  0.41270173  0.42736631  0.14320328    -0.66500
Ni176      Ni  0.35091152  0.38223072  0.31173694     1.27400
Ni177      Ni  0.34996362  0.43006909  0.24635809     1.26100
H178        H  0.39543999  0.45510528  0.23247702     0.38700
O179        O  0.63559800  0.56070507  0.53597285    -0.81300
O180        O  0.55628946  0.53072120  0.75247326    -0.66000
O181        O  0.61653341  0.55990512  0.65186029    -1.12600
C182        C  0.60632378  0.47498895  0.67312031     1.05600
O183        O  0.57808458  0.51911622  0.81075605    -0.79200
O184        O  0.61924820  0.51244718  0.78832753    -0.66800
Ni185      Ni  0.61506147  0.57318317  0.57620607     1.34900
C186        C  0.64020950  0.53113583  0.76896580     0.84400
O187        O  0.58474121  0.57809959  0.70317023    -0.79700
O188        O  0.59527310  0.58844590  0.60721254    -0.90000
C189        C  0.55810732  0.52107434  0.80119821     0.83900
O190        O  0.58437197  0.54260649  0.54940510    -0.68200
O191        O  0.58965830  0.47139448  0.71403117    -0.87500
C192        C  0.56277692  0.53066832  0.57637778     0.84800
C193        C  0.58674574  0.59154898  0.65774014     1.06300
H194        H  0.57403888  0.50274955  0.66495322     0.38100
O195        O  0.58758847  0.51480532  0.69230830    -1.10100
O196        O  0.64173418  0.54159009  0.71905127    -0.66800
Ni197      Ni  0.61901236  0.52878661  0.64926986     1.26300
O198        O  0.56078609  0.53305491  0.63318197    -0.67000
O199        O  0.61997339  0.49672883  0.64757578    -0.79300
C200        C  0.65119246  0.55314055  0.55186443     0.84100
O201        O  0.64986783  0.54363262  0.60272191    -0.66500
Ni202      Ni  0.58391529  0.49559235  0.76137051     1.27400
Ni203      Ni  0.58568824  0.54605778  0.69965767     1.26100
H204        H  0.63087500  0.57356026  0.67490474     0.38700
C205        C  0.53901726  0.51401913  0.53979854    -0.01700
C206        C  0.51563800  0.49650567  0.56719331    -0.09700
C207        C  0.49298568  0.48159986  0.53298901    -0.18500
C208        C  0.49291199  0.48390950  0.46984976     0.03900
C209        C  0.51681590  0.50129502  0.44209457     0.18100
C210        C  0.53945988  0.51607668  0.47701915    -0.19900
C211        C  0.51799810  0.50390279  0.37963367    -0.21200
C212        C  0.49593165  0.48940411  0.34387849    -0.19800
C213        C  0.47203213  0.47225590  0.36978512     0.19400
C214        C  0.47007258  0.46955078  0.43324258     0.01600
C215        C  0.44528134  0.45274402  0.45728608    -0.14500
C216        C  0.42357475  0.43873406  0.41988239    -0.12200
C217        C  0.42572202  0.44077501  0.35724203     0.01100
C218        C  0.45004370  0.45776020  0.33253321    -0.24400
H219        H  0.51480066  0.49431165  0.61544714     0.09100
H220        H  0.47587832  0.46843241  0.55738966     0.12700
H221        H  0.55743486  0.52953523  0.45514554     0.11400
H222        H  0.53618014  0.51712655  0.35820282     0.12600
H223        H  0.49755599  0.49169383  0.29561520     0.11600
H224        H  0.44194264  0.45004014  0.50484933     0.08700
H225        H  0.40502770  0.42587049  0.44032115     0.12000
H226        H  0.45189125  0.45976082  0.28418069     0.13800
C227        C  0.43203001  0.44596820  0.04834071    -0.01700
C228        C  0.42727317  0.45282850  0.99212630    -0.09700
C229        C  0.44710469  0.46483658  0.95054210    -0.18500
C230        C  0.47267287  0.47057137  0.96377544     0.03900
C231        C  0.47714040  0.46198927  0.01908200     0.18100
C232        C  0.45687704  0.44988910  0.06093426    -0.19900
C233        C  0.50190367  0.46598532  0.03256961    -0.21200
C234        C  0.52232838  0.47845217  0.99248105    -0.19800
C235        C  0.51866438  0.48785902  0.93869978     0.19400
C236        C  0.49389211  0.48443772  0.92396786     0.01600
C237        C  0.49154751  0.49541302  0.87047892    -0.14500
C238        C  0.51263289  0.50817888  0.83191255    -0.12200
C239        C  0.53669493  0.51047424  0.84529772     0.01100
C240        C  0.53964520  0.50059982  0.89934217    -0.24400
H241        H  0.40811950  0.44950774  0.98054822     0.09100
H242        H  0.44176688  0.46947492  0.90853499     0.12700
H243        H  0.46069978  0.44442240  0.10403970     0.11400
H244        H  0.50548853  0.45937638  0.07432570     0.12600
H245        H  0.54122403  0.48105881  0.00399967     0.11600
H246        H  0.47371353  0.49455599  0.85718213     0.08700
H247        H  0.50987595  0.51574155  0.79071177     0.12000
H248        H  0.55827321  0.50247019  0.91055344     0.13800
C249        C  0.36063594  0.50687315  0.24071427    -0.01700
C250        C  0.38132528  0.53218860  0.23344427    -0.09700
C251        C  0.37745105  0.55346263  0.23782078    -0.18500
C252        C  0.35241751  0.55008298  0.24844751     0.03900
C253        C  0.33160306  0.52442990  0.25800608     0.18100
C254        C  0.33595786  0.50318346  0.25506457    -0.19900
C255        C  0.30637267  0.52002052  0.26779774    -0.21200
C256        C  0.30116632  0.54038429  0.26611704    -0.19800
C257        C  0.32110057  0.56572414  0.25515934     0.19400
C258        C  0.34712521  0.57105495  0.24755232     0.01600
C259        C  0.36660184  0.59705473  0.23775825    -0.14500
C260        C  0.36034344  0.61664802  0.23309038    -0.12200
C261        C  0.33454363  0.61120696  0.23834142     0.01100
C262        C  0.31507064  0.58569921  0.25055761    -0.24400
H263        H  0.40059890  0.53552614  0.22267650     0.09100
H264        H  0.39432855  0.57217442  0.23059328     0.12700
H265        H  0.31977807  0.48360495  0.26014772     0.11400
H266        H  0.29041690  0.50056568  0.27530458     0.12600
H267        H  0.28131042  0.53620139  0.27249582     0.11600
H268        H  0.38687402  0.60292697  0.23286258     0.08700
H269        H  0.37589789  0.63616933  0.22457038     0.12000
H270        H  0.29504516  0.58119547  0.25545039     0.13800
C271        C  0.63991268  0.35106302  0.62158883    -0.01700
C272        C  0.65609686  0.37461522  0.59413511    -0.09700
C273        C  0.65025809  0.39469294  0.59676040    -0.18500
C274        C  0.62821633  0.39196606  0.62834274     0.03900
C275        C  0.61201035  0.36799953  0.65649830     0.18100
C276        C  0.61775681  0.34779980  0.65213287    -0.19900
C277        C  0.59039832  0.36444378  0.68980442    -0.21200
C278        C  0.58478756  0.38442731  0.69698715    -0.19800
C279        C  0.60046047  0.40834234  0.67040766     0.19400
C280        C  0.62206942  0.41233285  0.63459253     0.01600
C281        C  0.63679034  0.43669694  0.60761077    -0.14500
C282        C  0.63112007  0.45665030  0.61844968    -0.12200
C283        C  0.61056748  0.45300825  0.65621007     0.01100
C284        C  0.59494979  0.42851712  0.68075603    -0.24400
H285        H  0.67326172  0.37745330  0.57011395     0.09100
H286        H  0.66364471  0.41225790  0.57462641     0.12700
H287        H  0.60527904  0.32966584  0.67404070     0.11400
H288        H  0.57798747  0.34621300  0.71133554     0.12600
H289        H  0.56819695  0.38123041  0.72403943     0.11600
H290        H  0.65301508  0.44107190  0.57852906     0.08700
H291        H  0.64336552  0.47524630  0.59830704     0.12000
H292        H  0.57874889  0.42524716  0.70938544     0.13800
C293        C  0.46780992  0.83149398  0.19044934    -0.01700
C294        C  0.47098021  0.81197578  0.16144844    -0.09700
C295        C  0.45008929  0.78647379  0.15605985    -0.18500
C296        C  0.42529751  0.77983127  0.17944977     0.03900
C297        C  0.42178838  0.80025002  0.20409636     0.18100
C298        C  0.44296191  0.82563918  0.20982089    -0.19900
C299        C  0.39735728  0.79511005  0.22472775    -0.21200
C300        C  0.37647436  0.76983717  0.22397428    -0.19800
C301        C  0.37972286  0.74904890  0.20409442     0.19400
C302        C  0.40410883  0.75368913  0.18111064     0.01600
C303        C  0.40656390  0.73187336  0.16392537    -0.14500
C304        C  0.38601554  0.70659434  0.17159652    -0.12200
C305        C  0.36220492  0.70219522  0.19519940     0.01100
C306        C  0.35898847  0.72355038  0.20965617    -0.24400
H307        H  0.48992304  0.81618841  0.14508717     0.09100
H308        H  0.45402700  0.77234145  0.13420409     0.12700
H309        H  0.44019403  0.84084732  0.23069892     0.11400
H310        H  0.39449550  0.81069521  0.24263133     0.12600
H311        H  0.35790648  0.76643280  0.24124723     0.11600
H312        H  0.42441476  0.73369020  0.14660725     0.08700
H313        H  0.38891046  0.69039388  0.15961620     0.12000
H314        H  0.34068931  0.72036978  0.22828237     0.13800
C315        C  0.50865730  0.12989375  0.67833781    -0.01700
C316        C  0.50207080  0.14780764  0.65731919    -0.09700
C317        C  0.52135924  0.17280484  0.64322686    -0.18500
C318        C  0.54801718  0.18063389  0.64938444     0.03900
C319        C  0.55454783  0.16190040  0.66779381     0.18100
C320        C  0.53492223  0.13692660  0.68271383    -0.19900
C321        C  0.58061961  0.16828896  0.67189692    -0.21200
C322        C  0.60047087  0.19317776  0.65949328    -0.19800
C323        C  0.59470185  0.21238774  0.64402348     0.19400
C324        C  0.56839826  0.20641819  0.63867973     0.01600
C325        C  0.56366018  0.22672856  0.62472095    -0.14500
C326        C  0.58416084  0.25196453  0.61764747    -0.12200
C327        C  0.61003979  0.25782134  0.62360725     0.01100
C328        C  0.61514951  0.23777779  0.63563525    -0.24400
H329        H  0.48185615  0.14270125  0.65312104     0.09100
H330        H  0.51471557  0.18548375  0.62769822     0.12700
H331        H  0.54010939  0.12293874  0.69788920     0.11400
H332        H  0.58569923  0.15399424  0.68521903     0.12600
H333        H  0.62049242  0.19760855  0.66350474     0.11600
H334        H  0.54435766  0.22396978  0.62048715     0.08700
H335        H  0.57962425  0.26703127  0.60817476     0.12000
H336        H  0.63509402  0.24205887  0.64059587     0.13800
C337        C  0.52035098  0.95583033  0.06009922    -0.01700
C338        C  0.51116939  0.97182845  0.08420527    -0.09700
C339        C  0.49599624  0.97849037  0.04958119    -0.18500
C340        C  0.48944282  0.96934677  0.98913512     0.03900
C341        C  0.49740651  0.95183215  0.96599856     0.18100
C342        C  0.51275496  0.94534084  0.00132960    -0.19900
C343        C  0.49066736  0.94150841  0.90710233    -0.21200
C344        C  0.47719819  0.94911731  0.86966248    -0.19800
C345        C  0.47048211  0.96755655  0.88983358     0.19400
C346        C  0.47611437  0.97762500  0.95022161     0.01600
C347        C  0.46932240  0.99651654  0.96806816    -0.14500
C348        C  0.45904416  0.00620269  0.92678364    -0.12200
C349        C  0.45463190  0.99710693  0.86665373     0.01100
C350        C  0.45939349  0.97699017  0.84906571    -0.24400
H351        H  0.51639286  0.97996259  0.12963731     0.09100
H352        H  0.49006946  0.99117573  0.07123598     0.12700
H353        H  0.51934267  0.93258565  0.98236186     0.11400
H354        H  0.49635417  0.92786391  0.88940161     0.12600
H355        H  0.47282881  0.94120943  0.82388959     0.11600
H356        H  0.47265604  0.00499440  0.01297423     0.08700
H357        H  0.45521283  0.02151307  0.94175598     0.12000
H358        H  0.45608231  0.96986301  0.80261396     0.13800
C359        C  0.44937996  0.00178907  0.55885199    -0.01700
C360        C  0.45400269  0.01083054  0.50007001    -0.09700
C361        C  0.46977900  0.00592694  0.46109090    -0.18500
C362        C  0.48141465  0.99150167  0.47943486     0.03900
C363        C  0.47682826  0.98249201  0.53922595     0.18100
C364        C  0.46120504  0.98790339  0.57829324    -0.19900
C365        C  0.48739914  0.96763758  0.55933410    -0.21200
C366        C  0.50177602  0.96082455  0.52079241    -0.19800
C367        C  0.50629333  0.96902504  0.46142440     0.19400
C368        C  0.49678296  0.98504571  0.44021273     0.01600
C369        C  0.50269934  0.99345122  0.38034682    -0.14500
C370        C  0.51617531  0.98507581  0.34231418    -0.12200
C371        C  0.52415537  0.96807235  0.36250284     0.01100
C372        C  0.51969355  0.96067404  0.42263557    -0.24400
H373        H  0.44525085  0.02169888  0.48376824     0.09100
H374        H  0.47208318  0.01329950  0.41652980     0.12700
H375        H  0.45777345  0.98072625  0.62356571     0.11400
H376        H  0.48405965  0.96076317  0.60485951     0.12600
H377        H  0.50916801  0.94878550  0.53736701     0.11600
H378        H  0.49685651  0.00618624  0.36125358     0.08700
H379        H  0.51943715  0.99113632  0.29614260     0.12000
H380        H  0.52604012  0.94773291  0.43895891     0.13800
C381        C  0.26969447  0.63999739  0.23272059    -0.01700
C382        C  0.25070429  0.61617300  0.25502202    -0.09700
C383        C  0.22467387  0.60968989  0.25744769    -0.18500
C384        C  0.21658711  0.62684356  0.23707401     0.03900
C385        C  0.23597920  0.65138677  0.21633933     0.18100
C386        C  0.26220966  0.65771293  0.21427528    -0.19900
C387        C  0.22904149  0.66939431  0.19758691    -0.21200
C388        C  0.20320148  0.66356486  0.19919478    -0.19800
C389        C  0.18360588  0.63943360  0.21874771     0.19400
C390        C  0.19000600  0.62059105  0.23712015     0.01600
C391        C  0.16949055  0.59622796  0.25463855    -0.14500
C392        C  0.14397649  0.59129904  0.25704261    -0.12200
C393        C  0.13781896  0.61025997  0.24159594     0.01100
C394        C  0.15766329  0.63411844  0.22096452    -0.24400
H395        H  0.25591069  0.60227969  0.27057451     0.09100
H396        H  0.21141783  0.59108959  0.27569780     0.12700
H397        H  0.27673064  0.67633961  0.19741323     0.11400
H398        H  0.24372795  0.68818583  0.18187989     0.12600
H399        H  0.19850867  0.67801958  0.18496224     0.11600
H400        H  0.17244471  0.58053396  0.26709839     0.08700
H401        H  0.12897239  0.57251914  0.27201515     0.12000
H402        H  0.15309484  0.64889782  0.20860976     0.13800
C403        C  0.70379984  0.32093756  0.62650022    -0.01700
C404        C  0.70897461  0.30038293  0.62874464    -0.09700
C405        C  0.73411110  0.30509939  0.63952849    -0.18500
C406        C  0.75510739  0.33072126  0.64887192     0.03900
C407        C  0.74992559  0.35156011  0.64504079     0.18100
C408        C  0.72455106  0.34653555  0.63342867    -0.19900
C409        C  0.76996196  0.37729322  0.65444294    -0.21200
C410        C  0.79492188  0.38278833  0.66963460    -0.19800
C411        C  0.80054554  0.36270680  0.67495143     0.19400
C412        C  0.78088821  0.33639538  0.66324244     0.01600
C413        C  0.78788392  0.31693739  0.66703400    -0.14500
C414        C  0.81314681  0.32334052  0.68285085    -0.12200
C415        C  0.83206814  0.34914684  0.69643260     0.01100
C416        C  0.82572640  0.36877505  0.69230767    -0.24400
H417        H  0.69342284  0.28037955  0.62327375     0.09100
H418        H  0.73629411  0.28820177  0.64155833     0.12700
H419        H  0.72087893  0.36263871  0.63171409     0.11400
H420        H  0.76617559  0.39327270  0.65129454     0.12600
H421        H  0.80989002  0.40289165  0.67779480     0.11600
H422        H  0.77437025  0.29661351  0.65786756     0.08700
H423        H  0.81780592  0.30793889  0.68566127     0.12000
H424        H  0.84052826  0.38883473  0.70200920     0.13800
C425        C  0.97019695  0.43417221  0.88876705    -0.01700
C426        C  0.99179807  0.45761429  0.87206129    -0.09700
C427        C  0.00397784  0.47852244  0.91352611    -0.18500
C428        C  0.99473223  0.47654326  0.97312876     0.03900
C429        C  0.97433538  0.45192713  0.99103569     0.18100
C430        C  0.96232447  0.43112432  0.94896641    -0.19900
C431        C  0.96513746  0.44852602  0.05007750    -0.21200
C432        C  0.97453482  0.46953049  0.09083893    -0.19800
C433        C  0.99303139  0.49445468  0.07314005     0.19400
C434        C  0.00394434  0.49828602  0.01459515     0.01600
C435        C  0.02232079  0.52396859  0.99897020    -0.14500
C436        C  0.02804743  0.54506763  0.03812543    -0.12200
C437        C  0.01611479  0.54123994  0.09442453     0.01100
C438        C  0.99952977  0.51576609  0.11260079    -0.24400
H439        H  0.99857201  0.46024005  0.82603950     0.09100
H440        H  0.02005946  0.49615909  0.89708496     0.12700
H441        H  0.94606052  0.41277619  0.96268019     0.11400
H442        H  0.94992779  0.42967266  0.06424130     0.12600
H443        H  0.96639542  0.46646105  0.13566836     0.11600
H444        H  0.03174593  0.52852570  0.95587278     0.08700
H445        H  0.04132002  0.56452978  0.02344586     0.12000
H446        H  0.99036654  0.51251012  0.15634202     0.13800
C447        C  0.96106231  0.42057044  0.58121523    -0.01700
C448        C  0.95155097  0.41571796  0.52186732    -0.09700
C449        C  0.95682402  0.43619329  0.48433007    -0.18500
C450        C  0.97216652  0.46240345  0.50478651     0.03900
C451        C  0.98145436  0.46717474  0.56527523     0.18100
C452        C  0.97560158  0.44642122  0.60278004    -0.19900
C453        C  0.99716506  0.49266431  0.58771048    -0.21200
C454        C  0.00463745  0.51359157  0.55084719    -0.19800
C455        C  0.99628447  0.50959014  0.49083415     0.19400
C456        C  0.97937859  0.48403823  0.46712714     0.01600
C457        C  0.97102172  0.48137568  0.40648294    -0.14500
C458        C  0.98034010  0.50304607  0.37017070    -0.12200
C459        C  0.99821609  0.52794869  0.39306590     0.01100
C460        C  0.00546337  0.53106804  0.45394039    -0.24400
H461        H  0.94012729  0.39594668  0.50401551     0.09100
H462        H  0.94910240  0.43088794  0.43916451     0.12700
H463        H  0.98313349  0.45049935  0.64849534     0.11400
H464        H  0.00423893  0.49643382  0.63378134     0.12600
H465        H  0.01736326  0.53306532  0.56923050     0.11600
H466        H  0.95769557  0.46276840  0.38553954     0.08700
H467        H  0.97437550  0.50013647  0.32334897     0.12000
H468        H  0.01902860  0.55031013  0.47240710     0.13800
C469        C  0.02410200  0.38893369  0.72062426    -0.01700
C470        C  0.03310107  0.38734265  0.77743539    -0.09700
C471        C  0.05820510  0.39114205  0.78475284    -0.18500
C472        C  0.07515046  0.39680502  0.73514521     0.03900
C473        C  0.06615725  0.39946934  0.67823721     0.18100
C474        C  0.04097116  0.39551477  0.67159725    -0.19900
C475        C  0.08211148  0.40554071  0.62771657    -0.21200
C476        C  0.10676771  0.40856143  0.63201492    -0.19800
C477        C  0.11599053  0.40538927  0.68683437     0.19400
C478        C  0.10048482  0.39958594  0.73941343     0.01600
C479        C  0.11090069  0.39635802  0.79334146    -0.14500
C480        C  0.13544680  0.39835102  0.79444488    -0.12200
C481        C  0.15035588  0.40364500  0.74204341     0.01100
C482        C  0.14055446  0.40752028  0.68875737    -0.24400
H483        H  0.02039367  0.38228297  0.81603357     0.09100
H484        H  0.06366208  0.38921476  0.82952750     0.12700
H485        H  0.03429204  0.39710070  0.62756103     0.11400
H486        H  0.07536793  0.40771670  0.58435306     0.12600
H487        H  0.11857295  0.41303419  0.59188022     0.11600
H488        H  0.10038782  0.39186052  0.83509360     0.08700
H489        H  0.14247992  0.39513838  0.83620628     0.12000
H490        H  0.15189828  0.41177476  0.64789387     0.13800
C491        C  0.30816261  0.41915275  0.08481557    -0.01700
C492        C  0.30520154  0.40156957  0.03820554    -0.09700
C493        C  0.28681283  0.39542926  0.99279457    -0.18500
C494        C  0.27121465  0.40730060  0.99226113     0.03900
C495        C  0.27347735  0.42414028  0.04174755     0.18100
C496        C  0.29189993  0.42989311  0.08752327    -0.19900
C497        C  0.25806333  0.43588237  0.04403027    -0.21200
C498        C  0.24095057  0.43191128  0.99719164    -0.19800
C499        C  0.23915357  0.41644365  0.94650234     0.19400
C500        C  0.25417468  0.40379500  0.94352021     0.01600
C501        C  0.25234740  0.38907905  0.89070163    -0.14500
C502        C  0.23701392  0.38771007  0.84229540    -0.12200
C503        C  0.22258960  0.40051431  0.84484681     0.01100
C504        C  0.22318048  0.41432554  0.89770680    -0.24400
H505        H  0.31780267  0.39322825  0.03586442     0.09100
H506        H  0.28577408  0.38182130  0.95814917     0.12700
H507        H  0.29447972  0.44368744  0.12380049     0.11400
H508        H  0.25956855  0.44857680  0.08185856     0.12600
H509        H  0.22957025  0.44158746  0.99989639     0.11600
H510        H  0.26308382  0.37898290  0.88446294     0.08700
H511        H  0.23672636  0.37674437  0.80206408     0.12000
H512        H  0.21225858  0.42449602  0.89972884     0.13800
C513        C  0.21717388  0.39606525  0.62641594    -0.01700
C514        C  0.22417840  0.37691008  0.62055085    -0.09700
C515        C  0.23621950  0.37456509  0.56875372    -0.18500
C516        C  0.24238545  0.39197987  0.52147097     0.03900
C517        C  0.23468824  0.41111188  0.52702890     0.18100
C518        C  0.22162787  0.41261967  0.57887220    -0.19900
C519        C  0.24116666  0.42929808  0.48214874    -0.21200
C520        C  0.25638764  0.42979790  0.43351074    -0.19800
C521        C  0.26509166  0.41183130  0.42808650     0.19400
C522        C  0.25726857  0.39201474  0.47075382     0.01600
C523        C  0.26560763  0.37367238  0.46223802    -0.14500
C524        C  0.28304783  0.37641743  0.41711260    -0.12200
C525        C  0.29248862  0.39718359  0.37812448     0.01100
C526        C  0.28250594  0.41417667  0.38192066    -0.24400
H527        H  0.22062493  0.36383837  0.65683776     0.09100
H528        H  0.24136638  0.35957161  0.56847733     0.12700
H529        H  0.21628807  0.42758002  0.58374019     0.11400
H530        H  0.23525267  0.44384598  0.48584214     0.12600
H531        H  0.26193875  0.44474510  0.40076507     0.11600
H532        H  0.25950360  0.35724531  0.49036512     0.08700
H533        H  0.28971337  0.36244543  0.41376922     0.12000
H534        H  0.28937122  0.43004749  0.35121833     0.13800
C535        C  0.81626365  0.54601646  0.16181278    -0.01700
C536        C  0.82423525  0.54264047  0.21846462    -0.09700
C537        C  0.84886101  0.54555641  0.22714014    -0.18500
C538        C  0.86662232  0.55211978  0.17922475     0.03900
C539        C  0.85803726  0.55433410  0.12125312     0.18100
C540        C  0.83310778  0.55119115  0.11306713    -0.19900
C541        C  0.87465976  0.56041635  0.07196182    -0.21200
C542        C  0.89989803  0.56512910  0.07918177    -0.19800
C543        C  0.90923275  0.56404309  0.13595392     0.19400
C544        C  0.89275201  0.55721367  0.18683375     0.01600
C545        C  0.90347841  0.55656420  0.24309223    -0.14500
C546        C  0.92971998  0.56336896  0.24867487    -0.12200
C547        C  0.94602575  0.57082730  0.19847017     0.01100
C548        C  0.93529041  0.57047803  0.14210262    -0.24400
H549        H  0.81159346  0.53827637  0.25703043     0.09100
H550        H  0.85357957  0.54299969  0.27211885     0.12700
H551        H  0.82723021  0.55372902  0.06898237     0.11400
H552        H  0.86824155  0.56196649  0.02762177     0.12600
H553        H  0.91240657  0.57020313  0.04017921     0.11600
H554        H  0.89224301  0.55140194  0.28381368     0.08700
H555        H  0.93736073  0.56326928  0.29261987     0.12000
H556        H  0.94745800  0.57591836  0.10247418     0.13800
C557        C  0.74371221  0.55021798  0.25809057    -0.01700
C558        C  0.74470474  0.53856577  0.31092165    -0.09700
C559        C  0.73133997  0.53953975  0.36222443    -0.18500
C560        C  0.71687870  0.55259920  0.36211047     0.03900
C561        C  0.71685984  0.56510862  0.30871951     0.18100
C562        C  0.72988519  0.56354133  0.25757980    -0.19900
C563        C  0.70379154  0.57914075  0.30627365    -0.21200
C564        C  0.69025894  0.58075292  0.35562424    -0.19800
C565        C  0.68904613  0.56790724  0.40803495     0.19400
C566        C  0.70227375  0.55362450  0.41248001     0.01600
C567        C  0.69966180  0.54055261  0.46646323    -0.14500
C568        C  0.68380380  0.54100147  0.51301927    -0.12200
C569        C  0.67041475  0.55467238  0.50720990     0.01100
C570        C  0.67383605  0.56866054  0.45530818    -0.24400
H571        H  0.75548947  0.52830464  0.31228779     0.09100
H572        H  0.73275873  0.53001704  0.40119661     0.12700
H573        H  0.72948207  0.57306725  0.21719171     0.11400
H574        H  0.70396093  0.58887707  0.26579515     0.12600
H575        H  0.68016430  0.59165284  0.35227447     0.11600
H576        H  0.70898059  0.52923202  0.47328024     0.08700
H577        H  0.68142190  0.53000928  0.55277876     0.12000
H578        H  0.66381373  0.57957506  0.45052269     0.13800
C579        C  0.66381164  0.53960884  0.80551434    -0.01700
C580        C  0.67454832  0.56248727  0.84117871    -0.09700
C581        C  0.69376421  0.56758996  0.88429923    -0.18500
C582        C  0.70260959  0.54970470  0.89293722     0.03900
C583        C  0.69283273  0.52748546  0.85328512     0.18100
C584        C  0.67351065  0.52259440  0.81058058    -0.19900
C585        C  0.70159015  0.50967872  0.85801282    -0.21200
C586        C  0.71916775  0.51284851  0.90292202    -0.19800
C587        C  0.72796580  0.53356393  0.94515307     0.19400
C588        C  0.71994760  0.55241926  0.94064216     0.01600
C589        C  0.72840989  0.57223240  0.98613527    -0.14500
C590        C  0.74297895  0.57244748  0.03535877    -0.12200
C591        C  0.75039701  0.55357810  0.04001995     0.01100
C592        C  0.74357585  0.53468813  0.99379470    -0.24400
H593        H  0.66722473  0.57583613  0.83759416     0.09100
H594        H  0.70090404  0.58536115  0.91102062     0.12700
H595        H  0.66518138  0.50489854  0.78259679     0.11400
H596        H  0.69440466  0.49287542  0.82740018     0.12600
H597        H  0.72517336  0.49843265  0.90597262     0.11600
H598        H  0.72302952  0.58708199  0.98647445     0.08700
H599        H  0.74786136  0.58705730  0.07109992     0.12000
H600        H  0.74876189  0.51970248  0.99800563     0.13800
C601        C  0.57934201  0.61203284  0.66089788    -0.01700
C602        C  0.57309770  0.61951722  0.60719465    -0.09700
C603        C  0.57040905  0.64145912  0.60550263    -0.18500
C604        C  0.57408446  0.65706439  0.65779768     0.03900
C605        C  0.57865198  0.64852279  0.71311256     0.18100
C606        C  0.58110437  0.62607800  0.71430004    -0.19900
C607        C  0.58167236  0.66298657  0.76645942    -0.21200
C608        C  0.58111480  0.68613150  0.76579677    -0.19800
C609        C  0.57783767  0.69559891  0.71166660     0.19400
C610        C  0.57405195  0.68112892  0.65687827     0.01600
C611        C  0.57131982  0.69185525  0.60334355    -0.14500
C612        C  0.57290427  0.71615686  0.60411669    -0.12200
C613        C  0.57697676  0.73053519  0.65811617     0.01100
C614        C  0.57899373  0.71982359  0.71188600    -0.24400
H615        H  0.57097539  0.60868509  0.56539346     0.09100
H616        H  0.56593910  0.64592130  0.56223194     0.12700
H617        H  0.58576949  0.62040783  0.75611842     0.11400
H618        H  0.58493214  0.65658670  0.80888713     0.12600
H619        H  0.58389032  0.69703202  0.80782118     0.11600
H620        H  0.56849397  0.68223865  0.55984919     0.08700
H621        H  0.57113589  0.72378814  0.56200022     0.12000
H622        H  0.58218972  0.73065861  0.75418699     0.13800
C623        C  0.58500943  0.80626141  0.77304952    -0.01700
C624        C  0.56812035  0.79189915  0.81897383    -0.09700
C625        C  0.56645063  0.80432738  0.87193607    -0.18500
C626        C  0.58204862  0.83159555  0.88075746     0.03900
C627        C  0.60028555  0.84573099  0.83523170     0.18100
C628        C  0.60129614  0.83307867  0.78180542    -0.19900
C629        C  0.61711137  0.87252025  0.84267411    -0.21200
C630        C  0.61561268  0.88586244  0.89348396    -0.19800
C631        C  0.59682479  0.87282239  0.93726425     0.19400
C632        C  0.57988842  0.84548181  0.93218317     0.01600
C633        C  0.56092746  0.83356383  0.97752050    -0.14500
C634        C  0.55809172  0.84847630  0.02399786    -0.12200
C635        C  0.57418823  0.87554191  0.02683441     0.01100
C636        C  0.59415001  0.88732923  0.98466793    -0.24400
H637        H  0.55548410  0.77106394  0.81303973     0.09100
H638        H  0.55270288  0.79212875  0.90490669     0.12700
H639        H  0.61472768  0.84416025  0.74665797     0.11400
H640        H  0.63129051  0.88329958  0.80854870     0.12600
H641        H  0.62864199  0.90671234  0.89750547     0.11600
H642        H  0.54737709  0.81293953  0.97698912     0.08700
H643        H  0.54258904  0.83893127  0.05622142     0.12000
H644        H  0.60704151  0.90824454  0.98704012     0.13800
C645        C  0.58678022  0.80781814  0.55331052    -0.01700
C646        C  0.57517550  0.79412192  0.49935267    -0.09700
C647        C  0.57253780  0.80691997  0.45033710    -0.18500
C648        C  0.58131875  0.83394584  0.45401117     0.03900
C649        C  0.59422095  0.84787323  0.50784834     0.18100
C650        C  0.59711805  0.83487703  0.55610473    -0.19900
C651        C  0.60300260  0.87451504  0.51464890    -0.21200
C652        C  0.59766268  0.88735137  0.47086176    -0.19800
C653        C  0.58396473  0.87402348  0.41848339     0.19400
C654        C  0.57662928  0.84743833  0.40786209     0.01600
C655        C  0.56404873  0.83540539  0.35254440    -0.14500
C656        C  0.55735228  0.84864299  0.31184045    -0.12200
C657        C  0.56276488  0.87407454  0.32515140     0.01100
C658        C  0.57662282  0.88686836  0.37779297    -0.24400
H659        H  0.56706735  0.77324369  0.49582646     0.09100
H660        H  0.56263120  0.79498064  0.41107124     0.12700
H661        H  0.60646762  0.84581327  0.59726316     0.11400
H662        H  0.61309164  0.88527829  0.55536384     0.12600
H663        H  0.60373450  0.90771792  0.47872394     0.11600
H664        H  0.55862364  0.81562135  0.34016454     0.08700
H665        H  0.54658520  0.83845406  0.27130622     0.12000
H666        H  0.58091222  0.90661572  0.38802013     0.13800
C667        C  0.74231401  0.14287525  0.18018148    -0.01700
C668        C  0.73050770  0.13203496  0.12425943    -0.09700
C669        C  0.70634836  0.10910567  0.12046323    -0.18500
C670        C  0.69313626  0.09606268  0.17283624     0.03900
C671        C  0.70511734  0.10719786  0.22942067     0.18100
C672        C  0.72926713  0.13035297  0.23257196    -0.19900
C673        C  0.69316746  0.09494060  0.28266607    -0.21200
C674        C  0.66983069  0.07140256  0.28097112    -0.19800
C675        C  0.65769405  0.05962351  0.22601488     0.19400
C676        C  0.66887011  0.07206977  0.17119091     0.01600
C677        C  0.65549357  0.05967428  0.11709790    -0.14500
C678        C  0.63298585  0.03530337  0.11717620    -0.12200
C679        C  0.62279211  0.02236435  0.17098251     0.01100
C680        C  0.63484649  0.03506931  0.22548370    -0.24400
H681        H  0.74004187  0.14118305  0.08301770     0.09100
H682        H  0.69874527  0.10190262  0.07579375     0.12700
H683        H  0.73808447  0.13838257  0.27628667     0.11400
H684        H  0.70218296  0.10339593  0.32598509     0.12600
H685        H  0.66139043  0.06217423  0.32296049     0.11600
H686        H  0.66213966  0.06807231  0.07380184     0.08700
H687        H  0.62391829  0.02623659  0.07430923     0.12000
H688        H  0.62711395  0.02538884  0.26741819     0.13800
C689        C  0.88156197  0.28706303  0.56044050    -0.01700
C690        C  0.89374599  0.27638158  0.52498651    -0.09700
C691        C  0.88053835  0.25888847  0.47761810    -0.18500
C692        C  0.85462499  0.25177680  0.46334061     0.03900
C693        C  0.84152922  0.26080068  0.50259750     0.18100
C694        C  0.85505760  0.27830461  0.55089306    -0.19900
C695        C  0.81536728  0.25305761  0.49189728    -0.21200
C696        C  0.80217940  0.23716077  0.44199367    -0.19800
C697        C  0.81506430  0.22928496  0.40062615     0.19400
C698        C  0.84156001  0.23664071  0.41062759     0.01600
C699        C  0.85432295  0.22977594  0.36577619    -0.14500
C700        C  0.84147654  0.21662310  0.31287221    -0.12200
C701        C  0.81539500  0.20922260  0.30347651     0.01100
C702        C  0.80202388  0.21505355  0.34793990    -0.24400
H703        H  0.91398521  0.28222200  0.53276529     0.09100
H704        H  0.89132826  0.25162389  0.45250279     0.12700
H705        H  0.84539222  0.28623014  0.57872642     0.11400
H706        H  0.80513324  0.25960402  0.52189263     0.12600
H707        H  0.78201533  0.23171192  0.43463823     0.11600
H708        H  0.87454647  0.23522711  0.36890827     0.08700
H709        H  0.85211979  0.21246985  0.27855826     0.12000
H710        H  0.78194736  0.20982225  0.33993007     0.13800
C711        C  0.87704185  0.30777791  0.85994711    -0.01700
C712        C  0.88929819  0.31289194  0.91610335    -0.09700
C713        C  0.88022340  0.29388503  0.95920755    -0.18500
C714        C  0.85790845  0.26922318  0.94803405     0.03900
C715        C  0.84521639  0.26426177  0.89122488     0.18100
C716        C  0.85533550  0.28325492  0.84706476    -0.19900
C717        C  0.82190302  0.24088058  0.88005382    -0.21200
C718        C  0.81024868  0.22293135  0.92519485    -0.19800
C719        C  0.82218912  0.22741252  0.98178061     0.19400
C720        C  0.84688906  0.24998606  0.99264262     0.01600
C721        C  0.85928584  0.25265458  0.04830851    -0.14500
C722        C  0.84649150  0.23528553  0.09371113    -0.12200
C723        C  0.82089862  0.21458293  0.08556907     0.01100
C724        C  0.80928744  0.21002461  0.02835657    -0.24400
H725        H  0.90593829  0.33186728  0.92687814     0.09100
H726        H  0.89038335  0.29953491  0.00181847     0.12700
H727        H  0.84549520  0.27952587  0.80395888     0.11400
H728        H  0.81205942  0.23693561  0.83693453     0.12600
H729        H  0.79163648  0.20557874  0.91600073     0.11600
H730        H  0.87880804  0.26813713  0.05836706     0.08700
H731        H  0.85652795  0.23878611  0.13640331     0.12000
H732        H  0.78981383  0.19369314  0.02077409     0.13800
C733        C  0.23973787  0.81831408  0.72827084    -0.01700
C734        C  0.25015902  0.82554162  0.67068372    -0.09700
C735        C  0.27383802  0.84824371  0.66254538    -0.18500
C736        C  0.28795735  0.86477319  0.71203589     0.03900
C737        C  0.27782730  0.85694076  0.77060438     0.18100
C738        C  0.25405046  0.83385053  0.77820179    -0.19900
C739        C  0.29106922  0.87260289  0.82113141    -0.21200
C740        C  0.31359899  0.89648889  0.81459855    -0.19800
C741        C  0.32347078  0.90524342  0.75739478     0.19400
C742        C  0.31117600  0.88922332  0.70535244     0.01600
C743        C  0.32212127  0.89882179  0.64870186    -0.14500
C744        C  0.34314759  0.92390847  0.64368875    -0.12200
C745        C  0.35430093  0.94016513  0.69477951     0.01100
C746        C  0.34498099  0.93036483  0.75173051    -0.24400
H747        H  0.23976887  0.81383658  0.63123780     0.09100
H748        H  0.28021213  0.85251358  0.61674328     0.12700
H749        H  0.24635614  0.82841989  0.82309744     0.11400
H750        H  0.28358043  0.86664478  0.86595715     0.12600
H751        H  0.32300323  0.90848026  0.85449674     0.11600
H752        H  0.31452868  0.88774538  0.60716376     0.08700
H753        H  0.35034320  0.93080878  0.59919778     0.12000
H754        H  0.35361666  0.94274414  0.79157892     0.13800
C755        C  0.16755490  0.75856426  0.85724815    -0.01700
C756        C  0.18186030  0.75559697  0.90282528    -0.09700
C757        C  0.16941635  0.74214180  0.95454382    -0.18500
C758        C  0.14223713  0.73143919  0.96196660     0.03900
C759        C  0.12851831  0.73685995  0.91790556     0.18100
C760        C  0.14117860  0.75008539  0.86614125    -0.19900
C761        C  0.10192029  0.72793883  0.92412198    -0.21200
C762        C  0.08817090  0.71230185  0.97128992    -0.19800
C763        C  0.10061448  0.70484012  0.01264777     0.19400
C764        C  0.12790116  0.71464829  0.00966836     0.01600
C765        C  0.13920075  0.70599505  0.05250542    -0.14500
C766        C  0.12372932  0.68725661  0.09413095    -0.12200
C767        C  0.09669212  0.67679870  0.09442879     0.01100
C768        C  0.08552988  0.68649360  0.05505318    -0.24400
H769        H  0.20238946  0.76231261  0.89683845     0.09100
H770        H  0.18136761  0.73977186  0.98703512     0.12700
H771        H  0.13020781  0.75284413  0.83126677     0.11400
H772        H  0.09150365  0.73242495  0.89123112     0.12600
H773        H  0.06740476  0.70506123  0.97389264     0.11600
H774        H  0.15974819  0.71256610  0.05334022     0.08700
H775        H  0.13278574  0.68009287  0.12422646     0.12000
H776        H  0.06464214  0.67880797  0.05556682     0.13800
C777        C  0.09332589  0.65560621  0.39391904    -0.01700
C778        C  0.11216102  0.68108869  0.38055314    -0.09700
C779        C  0.12519992  0.69974333  0.42696823    -0.18500
C780        C  0.11959783  0.69332035  0.48823747     0.03900
C781        C  0.09950643  0.66771232  0.50082714     0.18100
C782        C  0.08674716  0.64933643  0.45406688    -0.19900
C783        C  0.09262264  0.66021773  0.56015179    -0.21200
C784        C  0.10554506  0.67750712  0.60779688    -0.19800
C785        C  0.12589653  0.70262144  0.59732961     0.19400
C786        C  0.13332209  0.71102461  0.53755480     0.01600
C787        C  0.15451031  0.73648350  0.53017054    -0.14500
C788        C  0.16791754  0.75262466  0.58006960    -0.12200
C789        C  0.16044705  0.74409708  0.63878871     0.01100
C790        C  0.13917237  0.71915530  0.64675423    -0.24400
H791        H  0.11765779  0.68627703  0.33431576     0.09100
H792        H  0.13983063  0.71884945  0.41363386     0.12700
H793        H  0.07202463  0.62966116  0.46466206     0.11400
H794        H  0.07724558  0.64072754  0.56982287     0.12600
H795        H  0.09983881  0.67102692  0.65326783     0.11600
H796        H  0.16144149  0.74427522  0.48644654     0.08700
H797        H  0.18427664  0.77183013  0.57256936     0.12000
H798        H  0.13327250  0.71216805  0.69182307     0.13800
C799        C  0.39724522  0.22996229  0.20248521    -0.01700
C800        C  0.40336958  0.24514259  0.15146169    -0.09700
C801        C  0.40159017  0.26784940  0.15260056    -0.18500
C802        C  0.39334766  0.27590716  0.20495399     0.03900
C803        C  0.38729868  0.26035526  0.25636627     0.18100
C804        C  0.38938513  0.23792931  0.25469419    -0.19900
C805        C  0.37895115  0.26704508  0.30948207    -0.21200
C806        C  0.37637293  0.28893641  0.31293204    -0.19800
C807        C  0.38205296  0.30467312  0.26333039     0.19400
C808        C  0.39063256  0.29857609  0.20849185     0.01600
C809        C  0.39581822  0.31534678  0.15998487    -0.14500
C810        C  0.39235165  0.33705710  0.16588381    -0.12200
C811        C  0.38381187  0.34277546  0.22027232     0.01100
C812        C  0.37889545  0.32642765  0.26863851    -0.24400
H813        H  0.40958125  0.23949162  0.11053687     0.09100
H814        H  0.40662255  0.27860701  0.11186947     0.12700
H815        H  0.38439690  0.22637755  0.29449652     0.11400
H816        H  0.37430810  0.25520595  0.34870867     0.12600
H817        H  0.36978847  0.29354833  0.35476822     0.11600
H818        H  0.40238091  0.31205843  0.11693789     0.08700
H819        H  0.39624924  0.34929510  0.12773164     0.12000
H820        H  0.37214704  0.33037230  0.31105391     0.13800
C821        C  0.39305461  0.15818479  0.31441491    -0.01700
C822        C  0.37311281  0.13244751  0.31911699    -0.09700
C823        C  0.37167068  0.11820973  0.36884159    -0.18500
C824        C  0.39084322  0.12911913  0.41486635     0.03900
C825        C  0.41054951  0.15568697  0.41102324     0.18100
C826        C  0.41123270  0.17010993  0.36135689    -0.19900
C827        C  0.43006864  0.16725898  0.45529835    -0.21200
C828        C  0.43117158  0.15268812  0.50176166    -0.19800
C829        C  0.41273716  0.12619960  0.50520445     0.19400
C830        C  0.39191033  0.11422780  0.46267403     0.01600
C831        C  0.37370201  0.08750476  0.46815136    -0.14500
C832        C  0.37707157  0.07291245  0.51102814    -0.12200
C833        C  0.39831560  0.08438260  0.55087185     0.01100
C834        C  0.41559324  0.11129213  0.54926676    -0.24400
H835        H  0.35881518  0.12309178  0.28327899     0.09100
H836        H  0.35582553  0.09843283  0.36857530     0.12700
H837        H  0.42677547  0.19008220  0.35743396     0.11400
H838        H  0.44504973  0.18752579  0.45296572     0.12600
H839        H  0.44698132  0.16203239  0.53425908     0.11600
H840        H  0.35698358  0.07702479  0.43899863     0.08700
H841        H  0.36314760  0.05227742  0.51213370     0.12000
H842        H  0.43206349  0.12036957  0.58010065     0.13800
C843        C  0.40256591  0.15736106  0.09689831    -0.01700
C844        C  0.39799404  0.16261975  0.03867498    -0.09700
C845        C  0.40097371  0.14940759  0.98821725    -0.18500
C846        C  0.40898356  0.13076207  0.99478565     0.03900
C847        C  0.41360955  0.12578873  0.05414472     0.18100
C848        C  0.41024248  0.13881000  0.10374720    -0.19900
C849        C  0.42196918  0.10803401  0.06424618    -0.21200
C850        C  0.42643400  0.09532141  0.01647937    -0.19800
C851        C  0.42242964  0.09987585  0.95745391     0.19400
C852        C  0.41320688  0.11723929  0.94522532     0.01600
C853        C  0.40910656  0.12041066  0.88409962    -0.14500
C854        C  0.41509186  0.10771403  0.83741154    -0.12200
C855        C  0.42539284  0.09171570  0.85053004     0.01100
C856        C  0.42831279  0.08746998  0.91061538    -0.24400
H857        H  0.39195784  0.17682027  0.03213329     0.09100
H858        H  0.39719464  0.15434256  0.94470006     0.12700
H859        H  0.41415638  0.13467201  0.14832781     0.11400
H860        H  0.42544926  0.10420448  0.10952005     0.12600
H861        H  0.43334033  0.08199181  0.02580259     0.11600
H862        H  0.40171855  0.13286074  0.87119541     0.08700
H863        H  0.41261809  0.11119503  0.79110569     0.12000
H864        H  0.43583113  0.07472830  0.92109419     0.13800
loop_ 
_geom_bond_atom_site_label_1 
_geom_bond_atom_site_label_2 
_geom_bond_distance 
_geom_bond_site_symmetry_2 
_ccdc_geom_bond_type 
C1            N2   1.363       .  A
C1            N6   1.367       .  A
C1          C799   1.485       .  S
N2            C3   1.352       .  A
C3            N4   1.350       .  A
C3          C821   1.469       .  S
N4            C5   1.357       .  A
C5            N6   1.364       .  A
C5          C843   1.485       .  S
C7            N8   1.362       .  A
C7           N12   1.362       .  A
C7          C733   1.483       .  S
N8            C9   1.358       .  A
C9           N10   1.356       .  A
C9          C755   1.472       .  S
N10          C11   1.356       .  A
C11          N12   1.357       .  A
C11         C789   1.484       .  S
C13          N14   1.362       .  A
C13          N18   1.368       .  A
C13         C667   1.488       .  S
N14          C15   1.354       .  A
C15          N16   1.351       .  A
C15         C701   1.469       .  S
N16          C17   1.355       .  A
C17          N18   1.363       .  A
C17         C723   1.487       .  S
C19          N20   1.359       .  A
C19          N24   1.368       .  A
C19         C613   1.488       .  S
N20          C21   1.354       .  A
C21          N22   1.355       .  A
C21         C623   1.472       .  S
N22          C23   1.358       .  A
C23          N24   1.365       .  A
C23         C645   1.489       .  S
C25          N26   1.369       .  A
C25          N30   1.359       .  A
C25         C535   1.488       .  S
N26          C27   1.364       .  A
C27          N28   1.353       .  A
C27         C591   1.477       .  S
N28          C29   1.353       .  A
C29          N30   1.353       .  A
C29         C557   1.472       .  S
C31          N32   1.361       .  A
C31          N36   1.365       .  A
C31         C481   1.482       .  S
N32          C33   1.352       .  A
C33          N34   1.351       .  A
C33         C513   1.467       .  S
N34          C35   1.355       .  A
C35          N36   1.362       .  A
C35         C503   1.477       .  S
O37         Ni43   1.917       .  S
O37          C58   1.272       .  A
O38         Ni61   1.905       .  S
O38          C47   1.266       .  A
O39         Ni43   1.910       .  S
O39         Ni61   1.907       .  S
O39         Ni55   1.922       .  S
O39          H62   0.966       .  S
C40         C415   1.470       .  S
C40          O57   1.273       .  A
C40          O49   1.277       .  A
O41         Ni60   1.931       .  S
O41          C47   1.271       .  A
O42         Ni60   1.905       .  S
O42          C44   1.268       .  A
Ni43         O46   1.934       .  S
Ni43         O48   1.906       .  S
C44         C711   1.471       .  S
C44          O54   1.271       .  A
O45         Ni61   1.906       .  S
O45          C51   1.268       .  A
O46          C51   1.273       .  A
C47         C425   1.477       .  S
O48          C50   1.270       .  A
O49         Ni60   1.927       .  S
C50         C447   1.486       .  S
C50          O56   1.279       .  A
C51         C469   1.478   1_655  S
H52          O53   0.966       .  S
O53         Ni61   1.902       .  S
O53         Ni55   1.904       .  S
O53         Ni60   1.905       .  S
O54         Ni55   1.928       .  S
Ni55         O59   1.906       .  S
Ni55         O57   1.910       .  S
O56         Ni61   1.952       .  S
C58         C689   1.476       .  S
C58          O59   1.269       .  A
O63         Ni69   1.916       .  S
O63          C84   1.271       .  A
O64         Ni87   1.928       .  S
O64          C73   1.271       .  A
O65         Ni69   1.909       .  S
O65         Ni87   1.921       .  S
O65         Ni81   1.935       .  S
O65          H88   0.966       .  S
C66         C393   1.480       .  S
C66          O83   1.280       .  A
C66          O75   1.278       .  A
O67         Ni86   1.915       .  S
O67          C73   1.267       .  A
O68         Ni86   1.895       .  S
O68          C70   1.267       .  A
Ni69         O72   1.927   1_455  S
Ni69         O74   1.909       .  S
C70         C777   1.478       .  S
C70          O80   1.275       .  A
O71         Ni87   1.925   1_655  S
O71          C77   1.275       .  A
O72          C77   1.273       .  A
C73         C459   1.483   1_455  S
O74          C76   1.271       .  A
O75         Ni86   1.913       .  S
C76         C437   1.479       .  S
C76          O82   1.275       .  A
C77         C547   1.490       .  S
H78          O79   0.966       .  S
O79         Ni87   1.912       .  S
O79         Ni81   1.896       .  S
O79         Ni86   1.885       .  S
O80         Ni81   1.938       .  S
Ni81         O85   1.916       .  S
Ni81         O83   1.931       .  S
O82         Ni87   1.938       .  S
C84         C767   1.481       .  S
C84          O85   1.271       .  A
O89         Ni95   1.929       .  S
O89         C110   1.274       .  A
O90        Ni113   1.921   1_565  S
O90          C99   1.271   1_565  A
O91         Ni95   1.907       .  S
O91        Ni113   1.915       .  S
O91        Ni107   1.920       .  S
O91         H114   0.966       .  S
C92         C315   1.471       .  S
C92         O109   1.276       .  A
C92         O101   1.277       .  A
O93        Ni112   1.925       .  S
O93          C99   1.270       .  A
O94        Ni112   1.899       .  S
O94          C96   1.268       .  A
Ni95         O98   1.936   1_545  S
Ni95        O100   1.906       .  S
C96         C855   1.478       .  S
C96         O106   1.272       .  A
O97        Ni113   1.902   1_565  S
O97         C103   1.270       .  A
O98         C103   1.276       .  A
C99         C349   1.481   1_545  S
O100        C102   1.271       .  A
O101       Ni112   1.918       .  S
C102        C359   1.486       .  S
C102        O108   1.278       .  A
C103        C745   1.477       .  S
H104        O105   0.966       .  S
O105       Ni113   1.900       .  S
O105       Ni107   1.896       .  S
O105       Ni112   1.891       .  S
O106       Ni107   1.934       .  S
Ni107       O111   1.904       .  S
Ni107       O109   1.912       .  S
O108       Ni113   1.950       .  S
C110        C833   1.480       .  S
C110        O111   1.268       .  A
O115       Ni121   1.910       .  S
O115        C136   1.270       .  A
O116       Ni139   1.920       .  S
O116        C125   1.270       .  A
O117       Ni121   1.914       .  S
O117       Ni139   1.916       .  S
O117       Ni133   1.935       .  S
O117        H140   0.966       .  S
C118        C293   1.477       .  S
C118        O135   1.279       .  A
C118        O127   1.278       .  A
O119       Ni138   1.919       .  S
O119        C125   1.268       .  A
O120       Ni138   1.907       .  S
O120        C122   1.268       .  A
Ni121       O124   1.928       .  S
Ni121       O126   1.907       .  S
C122        C657   1.476       .  S
C122        O132   1.273       .  A
O123       Ni139   1.919       .  S
O123        C129   1.272       .  A
O124        C129   1.271       .  A
C125        C371   1.482       .  S
O126        C128   1.271       .  A
O127       Ni138   1.919       .  S
C128        C337   1.487       .  S
C128        O134   1.280       .  A
C129        C679   1.486   1_565  S
H130        O131   0.965       .  S
O131       Ni139   1.906       .  S
O131       Ni133   1.899       .  S
O131       Ni138   1.899       .  S
O132       Ni133   1.936       .  S
Ni133       O137   1.912       .  S
Ni133       O135   1.924       .  S
O134       Ni139   1.953       .  S
C136        C635   1.478       .  S
C136        O137   1.270       .  A
C141        N142   1.356       .  A
C141        N146   1.356       .  A
C141        C327   1.478       .  S
N142        C143   1.356       .  A
C143        N144   1.360       .  A
C143        C271   1.475       .  S
N144        C145   1.361       .  A
C145        N146   1.358       .  A
C145        C403   1.483       .  S
C147        N148   1.358       .  A
C147        N152   1.359       .  A
C147        C305   1.479       .  S
N148        C149   1.358       .  A
C149        N150   1.360       .  A
C149        C381   1.482       .  S
N150        C151   1.358       .  A
C151        N152   1.359       .  A
C151        C261   1.486       .  S
O153       Ni159   1.910       .  S
O153        C174   1.266       .  A
O154       Ni177   1.906       .  S
O154        C163   1.268       .  A
O155       Ni159   1.890       .  S
O155       Ni177   1.892       .  S
O155       Ni171   1.912       .  S
O155        H178   0.966       .  S
C156        C811   1.487       .  S
C156        O173   1.273       .  A
C156        O165   1.273       .  A
O157       Ni176   1.918       .  S
O157        C163   1.272       .  A
O158       Ni176   1.900       .  S
O158        C160   1.271       .  A
Ni159       O162   1.912       .  S
Ni159       O164   1.901       .  S
C160        C217   1.482       .  S
C160        O170   1.278       .  A
O161       Ni177   1.938       .  S
O161        C167   1.282       .  A
O162        C167   1.278       .  A
C163        C525   1.477       .  S
O164        C166   1.265       .  A
O165       Ni176   1.924       .  S
C166        C491   1.459       .  S
C166        O172   1.267       .  A
C167        C249   1.479       .  S
H168        O169   0.966       .  S
O169       Ni177   1.931       .  S
O169       Ni171   1.916       .  S
O169       Ni176   1.901       .  S
O170       Ni171   1.947       .  S
Ni171       O175   1.927       .  S
Ni171       O173   1.921       .  S
O172       Ni177   1.920       .  S
C174        C227   1.479       .  S
C174        O175   1.271       .  A
O179       Ni185   1.915       .  S
O179        C200   1.271       .  A
O180       Ni203   1.922       .  S
O180        C189   1.273       .  A
O181       Ni185   1.904       .  S
O181       Ni203   1.915       .  S
O181       Ni197   1.925       .  S
O181        H204   0.966       .  S
C182        C283   1.484       .  S
C182        O199   1.281       .  A
C182        O191   1.278       .  A
O183       Ni202   1.910       .  S
O183        C189   1.268       .  A
O184       Ni202   1.907       .  S
O184        C186   1.267       .  A
Ni185       O188   1.918       .  S
Ni185       O190   1.899       .  S
C186        C579   1.471       .  S
C186        O196   1.271       .  A
O187       Ni203   1.931       .  S
O187        C193   1.277       .  A
O188        C193   1.273       .  A
C189        C239   1.479       .  S
O190        C192   1.268       .  A
O191       Ni202   1.915       .  S
C192        C205   1.483       .  S
C192        O198   1.277       .  A
C193        C601   1.486       .  S
H194        O195   0.966       .  S
O195       Ni203   1.917       .  S
O195       Ni197   1.884       .  S
O195       Ni202   1.891       .  S
O196       Ni197   1.934       .  S
Ni197       O201   1.899       .  S
Ni197       O199   1.933       .  S
O198       Ni203   1.946       .  S
C200        C569   1.474       .  S
C200        O201   1.266       .  A
C205        C206   1.400       .  A
C205        C210   1.405       .  A
C206        C207   1.397       .  A
C206        H219   1.083       .  S
C207        C208   1.416       .  A
C207        H220   1.077       .  S
C208        C214   1.429       .  A
C208        C209   1.421       .  A
C209        C211   1.400       .  A
C209        C210   1.404       .  A
C210        H221   1.084       .  S
C211        C212   1.390       .  A
C211        H222   1.084       .  S
C212        C213   1.399       .  A
C212        H223   1.084       .  S
C213        C214   1.423       .  A
C213        C218   1.406       .  A
C214        C215   1.413       .  A
C215        C216   1.394       .  A
C215        H224   1.077       .  S
C216        C217   1.402       .  A
C216        H225   1.083       .  S
C217        C218   1.402       .  A
C218        H226   1.085       .  S
C227        C228   1.402   1_554  A
C227        C232   1.402       .  A
C228        C229   1.390       .  A
C228        H241   1.083       .  S
C229        C230   1.410       .  A
C229        H242   1.077       .  S
C230        C236   1.427       .  A
C230        C231   1.424   1_556  A
C231        C233   1.399       .  A
C231        C232   1.409       .  A
C232        H243   1.084       .  S
C233        C234   1.392   1_554  A
C233        H244   1.084       .  S
C234        C235   1.401       .  A
C234        H245   1.084   1_556  S
C235        C236   1.419       .  A
C235        C240   1.403       .  A
C236        C237   1.417       .  A
C237        C238   1.396       .  A
C237        H246   1.077       .  S
C238        C239   1.398       .  A
C238        H247   1.083       .  S
C239        C240   1.406       .  A
C240        H248   1.084       .  S
C249        C250   1.400       .  A
C249        C254   1.402       .  A
C250        C251   1.393       .  A
C250        H263   1.084       .  S
C251        C252   1.414       .  A
C251        H264   1.077       .  S
C252        C258   1.430       .  A
C252        C253   1.423       .  A
C253        C255   1.400       .  A
C253        C254   1.409       .  A
C254        H265   1.085       .  S
C255        C256   1.392       .  A
C255        H266   1.084       .  S
C256        C257   1.401       .  A
C256        H267   1.084       .  S
C257        C258   1.421       .  A
C257        C262   1.407       .  A
C258        C259   1.414       .  A
C259        C260   1.395       .  A
C259        H268   1.077       .  S
C260        C261   1.401       .  A
C260        H269   1.083       .  S
C261        C262   1.405       .  A
C262        H270   1.084       .  S
C271        C272   1.398       .  A
C271        C276   1.401       .  A
C272        C273   1.398       .  A
C272        H285   1.083       .  S
C273        C274   1.416       .  A
C273        H286   1.077       .  S
C274        C280   1.430       .  A
C274        C275   1.422       .  A
C275        C277   1.399       .  A
C275        C276   1.402       .  A
C276        H287   1.085       .  S
C277        C278   1.388       .  A
C277        H288   1.084       .  S
C278        C279   1.399       .  A
C278        H289   1.084       .  S
C279        C280   1.422       .  A
C279        C284   1.403       .  A
C280        C281   1.415       .  A
C281        C282   1.398       .  A
C281        H290   1.077       .  S
C282        C283   1.402       .  A
C282        H291   1.083       .  S
C283        C284   1.403       .  A
C284        H292   1.084       .  S
C293        C294   1.400       .  A
C293        C298   1.401       .  A
C294        C295   1.399       .  A
C294        H307   1.083       .  S
C295        C296   1.416       .  A
C295        H308   1.078       .  S
C296        C302   1.429       .  A
C296        C297   1.421       .  A
C297        C299   1.399       .  A
C297        C298   1.401       .  A
C298        H309   1.085       .  S
C299        C300   1.388       .  A
C299        H310   1.084       .  S
C300        C301   1.399       .  A
C300        H311   1.084       .  S
C301        C302   1.423       .  A
C301        C306   1.403       .  A
C302        C303   1.414       .  A
C303        C304   1.397       .  A
C303        H312   1.078       .  S
C304        C305   1.401       .  A
C304        H313   1.083       .  S
C305        C306   1.401       .  A
C306        H314   1.085       .  S
C315        C316   1.399       .  A
C315        C320   1.400       .  A
C316        C317   1.392       .  A
C316        H329   1.084       .  S
C317        C318   1.414       .  A
C317        H330   1.077       .  S
C318        C324   1.425       .  A
C318        C319   1.422       .  A
C319        C321   1.399       .  A
C319        C320   1.402       .  A
C320        H331   1.085       .  S
C321        C322   1.389       .  A
C321        H332   1.084       .  S
C322        C323   1.399       .  A
C322        H333   1.084       .  S
C323        C324   1.421       .  A
C323        C328   1.402       .  A
C324        C325   1.414       .  A
C325        C326   1.393       .  A
C325        H334   1.077       .  S
C326        C327   1.400       .  A
C326        H335   1.083       .  S
C327        C328   1.402       .  A
C328        H336   1.084       .  S
C337        C338   1.401       .  A
C337        C342   1.405       .  A
C338        C339   1.397       .  A
C338        H351   1.083       .  S
C339        C340   1.415   1_554  A
C339        H352   1.077       .  S
C340        C346   1.431       .  A
C340        C341   1.421       .  A
C341        C343   1.401       .  A
C341        C342   1.408   1_556  A
C342        H353   1.084   1_554  S
C343        C344   1.392       .  A
C343        H354   1.084       .  S
C344        C345   1.400       .  A
C344        H355   1.084       .  S
C345        C346   1.424       .  A
C345        C350   1.409       .  A
C346        C347   1.413       .  A
C347        C348   1.395   1_565  A
C347        H356   1.077   1_566  S
C348        C349   1.402   1_545  A
C348        H357   1.084       .  S
C349        C350   1.401       .  A
C350        H358   1.084       .  S
C359        C360   1.403       .  A
C359        C364   1.403   1_545  A
C360        C361   1.397       .  A
C360        H373   1.083       .  S
C361        C362   1.414   1_545  A
C361        H374   1.077       .  S
C362        C368   1.432       .  A
C362        C363   1.423       .  A
C363        C365   1.399       .  A
C363        C364   1.407       .  A
C364        H375   1.084       .  S
C365        C366   1.390       .  A
C365        H376   1.084       .  S
C366        C367   1.400       .  A
C366        H377   1.084       .  S
C367        C368   1.421       .  A
C367        C372   1.405       .  A
C368        C369   1.417       .  A
C369        C370   1.399       .  A
C369        H378   1.077   1_565  S
C370        C371   1.400       .  A
C370        H379   1.083       .  S
C371        C372   1.403       .  A
C372        H380   1.085       .  S
C381        C382   1.400       .  A
C381        C386   1.405       .  A
C382        C383   1.393       .  A
C382        H395   1.083       .  S
C383        C384   1.414       .  A
C383        H396   1.077       .  S
C384        C390   1.427       .  A
C384        C385   1.421       .  A
C385        C387   1.401       .  A
C385        C386   1.406       .  A
C386        H397   1.084       .  S
C387        C388   1.392       .  A
C387        H398   1.084       .  S
C388        C389   1.400       .  A
C388        H399   1.084       .  S
C389        C390   1.423       .  A
C389        C394   1.408       .  A
C390        C391   1.412       .  A
C391        C392   1.391       .  A
C391        H400   1.077       .  S
C392        C393   1.400       .  A
C392        H401   1.083       .  S
C393        C394   1.403       .  A
C394        H402   1.084       .  S
C403        C404   1.403       .  A
C403        C408   1.402       .  A
C404        C405   1.394       .  A
C404        H417   1.083       .  S
C405        C406   1.413       .  A
C405        H418   1.077       .  S
C406        C412   1.428       .  A
C406        C407   1.422       .  A
C407        C409   1.399       .  A
C407        C408   1.405       .  A
C408        H419   1.084       .  S
C409        C410   1.390       .  A
C409        H420   1.084       .  S
C410        C411   1.399       .  A
C410        H421   1.084       .  S
C411        C412   1.423       .  A
C411        C416   1.404       .  A
C412        C413   1.415       .  A
C413        C414   1.394       .  A
C413        H422   1.077       .  S
C414        C415   1.398       .  A
C414        H423   1.084       .  S
C415        C416   1.399       .  A
C416        H424   1.085       .  S
C425        C426   1.400       .  A
C425        C430   1.401       .  A
C426        C427   1.397   1_655  A
C426        H439   1.083       .  S
C427        C428   1.415   1_455  A
C427        H440   1.077       .  S
C428        C434   1.428   1_656  A
C428        C429   1.422       .  A
C429        C431   1.399   1_556  A
C429        C430   1.401       .  A
C430        H441   1.085       .  S
C431        C432   1.388       .  A
C431        H442   1.084       .  S
C432        C433   1.399       .  A
C432        H443   1.084       .  S
C433        C434   1.422   1_655  A
C433        C438   1.401       .  A
C434        C435   1.415   1_554  A
C435        C436   1.396   1_556  A
C435        H444   1.077       .  S
C436        C437   1.400       .  A
C436        H445   1.083       .  S
C437        C438   1.402   1_455  A
C438        H446   1.085       .  S
C447        C448   1.404       .  A
C447        C452   1.402       .  A
C448        C449   1.400       .  A
C448        H461   1.083       .  S
C449        C450   1.415       .  A
C449        H462   1.078       .  S
C450        C456   1.433       .  A
C450        C451   1.423       .  A
C451        C453   1.398       .  A
C451        C452   1.405       .  A
C452        H463   1.084       .  S
C453        C454   1.388   1_655  A
C453        H464   1.084   1_655  S
C454        C455   1.399   1_455  A
C454        H465   1.084       .  S
C455        C456   1.421       .  A
C455        C460   1.402   1_655  A
C456        C457   1.418       .  A
C457        C458   1.402       .  A
C457        H466   1.078       .  S
C458        C459   1.400       .  A
C458        H467   1.083       .  S
C459        C460   1.403   1_655  A
C460        H468   1.085       .  S
C469        C470   1.401       .  A
C469        C474   1.400       .  A
C470        C471   1.400       .  A
C470        H483   1.083       .  S
C471        C472   1.416       .  A
C471        H484   1.078       .  S
C472        C478   1.431       .  A
C472        C473   1.423       .  A
C473        C475   1.397       .  A
C473        C474   1.400       .  A
C474        H485   1.085       .  S
C475        C476   1.385       .  A
C475        H486   1.084       .  S
C476        C477   1.398       .  A
C476        H487   1.084       .  S
C477        C478   1.422       .  A
C477        C482   1.399       .  A
C478        C479   1.417       .  A
C479        C480   1.401       .  A
C479        H488   1.078       .  S
C480        C481   1.402       .  A
C480        H489   1.083       .  S
C481        C482   1.401       .  A
C482        H490   1.084       .  S
C491        C492   1.394       .  A
C491        C496   1.397       .  A
C492        C493   1.393   1_554  A
C492        H505   1.084       .  S
C493        C494   1.417       .  A
C493        H506   1.077       .  S
C494        C500   1.427       .  A
C494        C495   1.422   1_556  A
C495        C497   1.400       .  A
C495        C496   1.404       .  A
C496        H507   1.085       .  S
C497        C498   1.391   1_554  A
C497        H508   1.084       .  S
C498        C499   1.400       .  A
C498        H509   1.084       .  S
C499        C500   1.424       .  A
C499        C504   1.408       .  A
C500        C501   1.412       .  A
C501        C502   1.390       .  A
C501        H510   1.077       .  S
C502        C503   1.400       .  A
C502        H511   1.084       .  S
C503        C504   1.401       .  A
C504        H512   1.084       .  S
C513        C514   1.395       .  A
C513        C518   1.401       .  A
C514        C515   1.389       .  A
C514        H527   1.084       .  S
C515        C516   1.414       .  A
C515        H528   1.076       .  S
C516        C522   1.425       .  A
C516        C517   1.423       .  A
C517        C519   1.401       .  A
C517        C518   1.408       .  A
C518        H529   1.085       .  S
C519        C520   1.393       .  A
C519        H530   1.084       .  S
C520        C521   1.401       .  A
C520        H531   1.084       .  S
C521        C522   1.423       .  A
C521        C526   1.409       .  A
C522        C523   1.411       .  A
C523        C524   1.388       .  A
C523        H532   1.077       .  S
C524        C525   1.400       .  A
C524        H533   1.084       .  S
C525        C526   1.403       .  A
C526        H534   1.084       .  S
C535        C536   1.406       .  A
C535        C540   1.401       .  A
C536        C537   1.397       .  A
C536        H549   1.083       .  S
C537        C538   1.412       .  A
C537        H550   1.077       .  S
C538        C544   1.433       .  A
C538        C539   1.425       .  A
C539        C541   1.398       .  A
C539        C540   1.407       .  A
C540        H551   1.084       .  S
C541        C542   1.388       .  A
C541        H552   1.084       .  S
C542        C543   1.400       .  A
C542        H553   1.084       .  S
C543        C544   1.419       .  A
C543        C548   1.401       .  A
C544        C545   1.420       .  A
C545        C546   1.404       .  A
C545        H554   1.077       .  S
C546        C547   1.401       .  A
C546        H555   1.083       .  S
C547        C548   1.407       .  A
C548        H556   1.084       .  S
C557        C558   1.401       .  A
C557        C562   1.396       .  A
C558        C559   1.399       .  A
C558        H571   1.083       .  S
C559        C560   1.415       .  A
C559        H572   1.078       .  S
C560        C566   1.427       .  A
C560        C561   1.423       .  A
C561        C563   1.396       .  A
C561        C562   1.395       .  A
C562        H573   1.085       .  S
C563        C564   1.382       .  A
C563        H574   1.084       .  S
C564        C565   1.397       .  A
C564        H575   1.084       .  S
C565        C566   1.421       .  A
C565        C570   1.393       .  A
C566        C567   1.417       .  A
C567        C568   1.400       .  A
C567        H576   1.078       .  S
C568        C569   1.401       .  A
C568        H577   1.083       .  S
C569        C570   1.399       .  A
C570        H578   1.085       .  S
C579        C580   1.397       .  A
C579        C584   1.399       .  A
C580        C581   1.402       .  A
C580        H593   1.083       .  S
C581        C582   1.420       .  A
C581        H594   1.078       .  S
C582        C588   1.433       .  A
C582        C583   1.421       .  A
C583        C585   1.399       .  A
C583        C584   1.403       .  A
C584        H595   1.085       .  S
C585        C586   1.390       .  A
C585        H596   1.084       .  S
C586        C587   1.399       .  A
C586        H597   1.084       .  S
C587        C588   1.426       .  A
C587        C592   1.409       .  A
C588        C589   1.414       .  A
C589        C590   1.397   1_556  A
C589        H598   1.078       .  S
C590        C591   1.401       .  A
C590        H599   1.084       .  S
C591        C592   1.398   1_554  A
C592        H600   1.085       .  S
C601        C602   1.404       .  A
C601        C606   1.402       .  A
C602        C603   1.392       .  A
C602        H615   1.084       .  S
C603        C604   1.410       .  A
C603        H616   1.077       .  S
C604        C610   1.431       .  A
C604        C605   1.426       .  A
C605        C607   1.399       .  A
C605        C606   1.413       .  A
C606        H617   1.084       .  S
C607        C608   1.392       .  A
C607        H618   1.084       .  S
C608        C609   1.402       .  A
C608        H619   1.084       .  S
C609        C610   1.419       .  A
C609        C614   1.406       .  A
C610        C611   1.418       .  A
C611        C612   1.399       .  A
C611        H620   1.077       .  S
C612        C613   1.400       .  A
C612        H621   1.083       .  S
C613        C614   1.408       .  A
C614        H622   1.084       .  S
C623        C624   1.400       .  A
C623        C628   1.397       .  A
C624        C625   1.398       .  A
C624        H637   1.083       .  S
C625        C626   1.414       .  A
C625        H638   1.078       .  S
C626        C632   1.429       .  A
C626        C627   1.424       .  A
C627        C629   1.397       .  A
C627        C628   1.401       .  A
C628        H639   1.085       .  S
C629        C630   1.386       .  A
C629        H640   1.084       .  S
C630        C631   1.399       .  A
C630        H641   1.084       .  S
C631        C632   1.420       .  A
C631        C636   1.396       .  A
C632        C633   1.419       .  A
C633        C634   1.401   1_556  A
C633        H642   1.078       .  S
C634        C635   1.400       .  A
C634        H643   1.083       .  S
C635        C636   1.402   1_554  A
C636        H644   1.085       .  S
C645        C646   1.402       .  A
C645        C650   1.404       .  A
C646        C647   1.404       .  A
C646        H659   1.083       .  S
C647        C648   1.418       .  A
C647        H660   1.078       .  S
C648        C654   1.435       .  A
C648        C649   1.421       .  A
C649        C651   1.400       .  A
C649        C650   1.404       .  A
C650        H661   1.085       .  S
C651        C652   1.389       .  A
C651        H662   1.084       .  S
C652        C653   1.399       .  A
C652        H663   1.084       .  S
C653        C654   1.424       .  A
C653        C658   1.407       .  A
C654        C655   1.416       .  A
C655        C656   1.402       .  A
C655        H664   1.078       .  S
C656        C657   1.400       .  A
C656        H665   1.084       .  S
C657        C658   1.399       .  A
C658        H666   1.085       .  S
C667        C668   1.401       .  A
C667        C672   1.406       .  A
C668        C669   1.399       .  A
C668        H681   1.083       .  S
C669        C670   1.417       .  A
C669        H682   1.077       .  S
C670        C676   1.431       .  A
C670        C671   1.420       .  A
C671        C673   1.400       .  A
C671        C672   1.404       .  A
C672        H683   1.084       .  S
C673        C674   1.390       .  A
C673        H684   1.084       .  S
C674        C675   1.399       .  A
C674        H685   1.084       .  S
C675        C676   1.424       .  A
C675        C680   1.409       .  A
C676        C677   1.412       .  A
C677        C678   1.394       .  A
C677        H686   1.077       .  S
C678        C679   1.404       .  A
C678        H687   1.083       .  S
C679        C680   1.402       .  A
C680        H688   1.084       .  S
C689        C690   1.400       .  A
C689        C694   1.403       .  A
C690        C691   1.389       .  A
C690        H703   1.084       .  S
C691        C692   1.411       .  A
C691        H704   1.077       .  S
C692        C698   1.425       .  A
C692        C693   1.422       .  A
C693        C695   1.400       .  A
C693        C694   1.409       .  A
C694        H705   1.085       .  S
C695        C696   1.393       .  A
C695        H706   1.084       .  S
C696        C697   1.401       .  A
C696        H707   1.084       .  S
C697        C698   1.422       .  A
C697        C702   1.408       .  A
C698        C699   1.414       .  A
C699        C700   1.391       .  A
C699        H708   1.077       .  S
C700        C701   1.396       .  A
C700        H709   1.084       .  S
C701        C702   1.401       .  A
C702        H710   1.085       .  S
C711        C712   1.397       .  A
C711        C716   1.401       .  A
C712        C713   1.393       .  A
C712        H725   1.084       .  S
C713        C714   1.415       .  A
C713        H726   1.078   1_556  S
C714        C720   1.427       .  A
C714        C715   1.422       .  A
C715        C717   1.401       .  A
C715        C716   1.409       .  A
C716        H727   1.085       .  S
C717        C718   1.395       .  A
C717        H728   1.084       .  S
C718        C719   1.401       .  A
C718        H729   1.084       .  S
C719        C720   1.422       .  A
C719        C724   1.412   1_556  A
C720        C721   1.410   1_556  A
C721        C722   1.390       .  A
C721        H730   1.078       .  S
C722        C723   1.404       .  A
C722        H731   1.083       .  S
C723        C724   1.405       .  A
C724        H732   1.084       .  S
C733        C734   1.401       .  A
C733        C738   1.404       .  A
C734        C735   1.393       .  A
C734        H747   1.083       .  S
C735        C736   1.414       .  A
C735        H748   1.077       .  S
C736        C742   1.427       .  A
C736        C737   1.422       .  A
C737        C739   1.400       .  A
C737        C738   1.405       .  A
C738        H749   1.084       .  S
C739        C740   1.390       .  A
C739        H750   1.084       .  S
C740        C741   1.399       .  A
C740        H751   1.084       .  S
C741        C742   1.423       .  A
C741        C746   1.405       .  A
C742        C743   1.413       .  A
C743        C744   1.392       .  A
C743        H752   1.077       .  S
C744        C745   1.401       .  A
C744        H753   1.083       .  S
C745        C746   1.401       .  A
C746        H754   1.084       .  S
C755        C756   1.399       .  A
C755        C760   1.397       .  A
C756        C757   1.401       .  A
C756        H769   1.083       .  S
C757        C758   1.416       .  A
C757        H770   1.078       .  S
C758        C764   1.432   1_556  A
C758        C759   1.423       .  A
C759        C761   1.397       .  A
C759        C760   1.401       .  A
C760        H771   1.085       .  S
C761        C762   1.386       .  A
C761        H772   1.084       .  S
C762        C763   1.399   1_556  A
C762        H773   1.084       .  S
C763        C764   1.421       .  A
C763        C768   1.399       .  A
C764        C765   1.419       .  A
C765        C766   1.404       .  A
C765        H774   1.078       .  S
C766        C767   1.400       .  A
C766        H775   1.083       .  S
C767        C768   1.402       .  A
C768        H776   1.085       .  S
C777        C778   1.400       .  A
C777        C782   1.400       .  A
C778        C779   1.404       .  A
C778        H791   1.083       .  S
C779        C780   1.419       .  A
C779        H792   1.078       .  S
C780        C786   1.433       .  A
C780        C781   1.422       .  A
C781        C783   1.398       .  A
C781        C782   1.399       .  A
C782        H793   1.085       .  S
C783        C784   1.385       .  A
C783        H794   1.084       .  S
C784        C785   1.398       .  A
C784        H795   1.084       .  S
C785        C786   1.423       .  A
C785        C790   1.401       .  A
C786        C787   1.416       .  A
C787        C788   1.402       .  A
C787        H796   1.078       .  S
C788        C789   1.403       .  A
C788        H797   1.083       .  S
C789        C790   1.401       .  A
C790        H798   1.084       .  S
C799        C800   1.403       .  A
C799        C804   1.401       .  A
C800        C801   1.404       .  A
C800        H813   1.083       .  S
C801        C802   1.417       .  A
C801        H814   1.078       .  S
C802        C808   1.434       .  A
C802        C803   1.422       .  A
C803        C805   1.397       .  A
C803        C804   1.398       .  A
C804        H815   1.084       .  S
C805        C806   1.383       .  A
C805        H816   1.084       .  S
C806        C807   1.398       .  A
C806        H817   1.084       .  S
C807        C808   1.421       .  A
C807        C812   1.397       .  A
C808        C809   1.419       .  A
C809        C810   1.406       .  A
C809        H818   1.078       .  S
C810        C811   1.402       .  A
C810        H819   1.083       .  S
C811        C812   1.403       .  A
C812        H820   1.084       .  S
C821        C822   1.395       .  A
C821        C826   1.401       .  A
C822        C823   1.392       .  A
C822        H835   1.084       .  S
C823        C824   1.415       .  A
C823        H836   1.076       .  S
C824        C830   1.428       .  A
C824        C825   1.423       .  A
C825        C827   1.401       .  A
C825        C826   1.409       .  A
C826        H837   1.085       .  S
C827        C828   1.393       .  A
C827        H838   1.084       .  S
C828        C829   1.401       .  A
C828        H839   1.084       .  S
C829        C830   1.423       .  A
C829        C834   1.410       .  A
C830        C831   1.413       .  A
C831        C832   1.391       .  A
C831        H840   1.076       .  S
C832        C833   1.400       .  A
C832        H841   1.084       .  S
C833        C834   1.404       .  A
C834        H842   1.085       .  S
C843        C844   1.403       .  A
C843        C848   1.400       .  A
C844        C845   1.407   1_554  A
C844        H857   1.083       .  S
C845        C846   1.419       .  A
C845        H858   1.078       .  S
C846        C852   1.434       .  A
C846        C847   1.422   1_556  A
C847        C849   1.397       .  A
C847        C848   1.395       .  A
C848        H859   1.085       .  S
C849        C850   1.381       .  A
C849        H860   1.084       .  S
C850        C851   1.396   1_554  A
C850        H861   1.084       .  S
C851        C852   1.423       .  A
C851        C856   1.395       .  A
C852        C853   1.419       .  A
C853        C854   1.407       .  A
C853        H862   1.078       .  S
C854        C855   1.402       .  A
C854        H863   1.083       .  S
C855        C856   1.397       .  A
C856        H864   1.085       .  S
