geometry optimzed in LAMMPS
_audit_creation_date              2020-11-30 
_audit_creation_method            'lammps2cif' 
_symmetry_space_group_name_H-M    'P1' 
_symmetry_Int_Tables_number       1 
_symmetry_cell_setting            triclinic 
loop_ 
_symmetry_equiv_pos_as_xyz 
  x,y,z 
_cell_length_a                    33.31561499 
_cell_length_b                    33.32649541989958 
_cell_length_c                    35.22444271728575 
_cell_angle_alpha                 89.86771641100191 
_cell_angle_beta                  89.87587405404483 
_cell_angle_gamma                 89.47016443797503 
loop_ 
_atom_site_label 
_atom_site_type_symbol 
_atom_site_fract_x 
_atom_site_fract_y 
_atom_site_fract_z 
_atom_site_charge 
C1          C  0.83733861  0.39045703  0.96705156     0.03300
C2          C  0.86757788  0.41950024  0.96628387    -0.12900
C3          C  0.90808936  0.40899818  0.97328090     0.00800
C4          C  0.91756701  0.36822187  0.98059768    -0.11400
C5          C  0.88761896  0.33870853  0.98017690     0.03200
C6          C  0.84769350  0.35032396  0.97377563    -0.10800
H7          H  0.85918908  0.45016983  0.95969621     0.08800
H8          H  0.94797799  0.35922736  0.98743989     0.06400
H9          H  0.82433152  0.32791166  0.97428410     0.06200
C10         C  0.84307203  0.38725421  0.47392466     0.03300
C11         C  0.85566668  0.34790468  0.48062599    -0.12900
C12         C  0.89618484  0.33857349  0.48584421     0.00800
C13         C  0.92467377  0.36935392  0.48424069    -0.11400
C14         C  0.91298267  0.40954480  0.47636152     0.03200
C15         C  0.87161854  0.41780901  0.47071258    -0.10800
H16         H  0.83354573  0.32424667  0.48162558     0.08800
H17         H  0.95563506  0.36155616  0.48997066     0.06400
H18         H  0.86109352  0.44778291  0.46407286     0.06200
C19         C  0.46038957  0.84287469  0.97196991     0.03300
C20         C  0.43040478  0.87282959  0.97172430    -0.12900
C21         C  0.44010080  0.91387846  0.97618244     0.00800
C22         C  0.48102817  0.92394942  0.98043107    -0.11400
C23         C  0.51130269  0.89438742  0.97888817     0.03200
C24         C  0.50062121  0.85416587  0.97459163    -0.10800
H25         H  0.39963613  0.86359651  0.96854837     0.08800
H26         H  0.48977793  0.95452019  0.98599641     0.06400
H27         H  0.52393813  0.83127567  0.97355127     0.06200
C28         C  0.46198510  0.83560297  0.47392584     0.03300
C29         C  0.43164313  0.86517233  0.47378176    -0.12900
C30         C  0.44036534  0.90586865  0.48186828     0.00800
C31         C  0.48097443  0.91585617  0.48873756    -0.11400
C32         C  0.51167721  0.88674171  0.48702496     0.03200
C33         C  0.50182159  0.84683170  0.47958740    -0.10800
H34         H  0.40142179  0.85565381  0.46790585     0.08800
H35         H  0.48935178  0.94592412  0.49657522     0.06400
H36         H  0.52531335  0.82414778  0.47827459     0.06200
O37         O  0.83207409  0.89936353  0.97446743    -0.78400
C38         C  0.92218762  0.92320271  0.89069647     0.82700
O39         O  0.95175496  0.83114957  0.02120870    -0.79500
O40         O  0.01760434  0.95052198  0.97268934    -0.81000
O41         O  0.89814242  0.01908177  0.01955202    -0.80800
O42         O  0.82882257  0.94734972  0.01825031    -0.79400
Zn43       Zn  0.89138231  0.88872565  0.96555592     1.55700
O44         O  0.94304923  0.02001732  0.97247481    -0.80800
Cd45       Cd  0.88853321  0.95878733  0.02960787     1.59700
Cd46       Cd  0.95988610  0.89186819  0.03038229     1.59600
O47         O  0.89913955  0.94866221  0.08678424    -0.80800
O48         O  0.92370241  0.92435524  0.99676047    -1.91300
Cd49       Cd  0.95657270  0.95999514  0.96322723     1.59900
O50         O  0.94757868  0.90201913  0.08741848    -0.80700
O51         O  0.94419630  0.94919795  0.90672314    -0.79400
C52         C  0.92846722  0.81206596  0.99914642     0.83100
C53         C  0.81176041  0.92306529  0.99564253     0.82800
O54         O  0.90167407  0.89812325  0.90975330    -0.78300
C55         C  0.91990021  0.03799717  0.99586562     0.83600
O56         O  0.90429133  0.83025032  0.97678626    -0.78400
C57         C  0.92299981  0.92525605  0.10463554     0.83700
C58         C  0.03737277  0.92847359  0.99590896     0.84100
O59         O  0.01955359  0.90552110  0.01946416    -0.80900
O60         O  0.90120169  0.83222109  0.52001969    -0.78400
C61         C  0.91828925  0.92683898  0.60519321     0.82700
O62         O  0.82844020  0.94788104  0.47394667    -0.79500
O63         O  0.94546643  0.02045011  0.51900667    -0.81000
O64         O  0.01957439  0.90210146  0.48071949    -0.80800
O65         O  0.94839721  0.83268081  0.47514023    -0.79400
Zn66       Zn  0.88881086  0.89107739  0.53053291     1.55700
O67         O  0.01664464  0.94910494  0.52548147    -0.80800
Cd68       Cd  0.95993598  0.89260103  0.46655831     1.59700
Cd69       Cd  0.88853553  0.95896110  0.46491958     1.59600
O70         O  0.95179988  0.90453840  0.40893005    -0.80800
O71         O  0.92281666  0.92525208  0.49908619    -1.91300
Cd72       Cd  0.95578532  0.96066156  0.53218359     1.59900
O73         O  0.89977646  0.94691965  0.40847575    -0.80700
O74         O  0.94213827  0.95105598  0.58877704    -0.79400
C75         C  0.81071918  0.92402556  0.49659944     0.83100
C76         C  0.92486972  0.81376700  0.49730142     0.82800
O77         O  0.89666859  0.90250145  0.58650838    -0.78300
C78         C  0.03673928  0.92519067  0.50437890     0.83600
O79         O  0.83004607  0.90135445  0.51945444    -0.78400
C80         C  0.92597271  0.92581550  0.39104644     0.83700
C81         C  0.92280606  0.03845922  0.49515030     0.84100
O82         O  0.89941076  0.01926706  0.47326518    -0.80900
C83         C  0.96022066  0.51088579  0.97992138     0.03300
C84         C  0.93091547  0.48081400  0.98218185    -0.12900
C85         C  0.94010504  0.44049158  0.97280071     0.00800
C86         C  0.98011313  0.43064203  0.96288918    -0.11400
C87         C  0.01003099  0.46007149  0.96222132     0.03200
C88         C  0.99963822  0.49996837  0.97011445    -0.10800
H89         H  0.90116202  0.48896903  0.99196366     0.08800
H90         H  0.98835581  0.40022378  0.95529980     0.06400
H91         H  0.02271077  0.52264753  0.96918853     0.06200
C92         C  0.96094391  0.51400499  0.47842430     0.03300
C93         C  0.93258162  0.48306904  0.48115424    -0.12900
C94         C  0.94358423  0.44253032  0.47447774     0.00800
C95         C  0.98436418  0.43378101  0.46654835    -0.11400
C96         C  0.01329059  0.46409687  0.46634524     0.03200
C97         C  0.00120330  0.50401834  0.47109148    -0.10800
H98         H  0.90225366  0.49091546  0.48937534     0.08800
H99         H  0.99416865  0.40353099  0.46021575     0.06400
H100        H  0.02354571  0.52741749  0.46960485     0.06200
C101        C  0.33743434  0.96568109  0.98657654     0.03300
C102        C  0.36782867  0.93632752  0.98690461    -0.12900
C103        C  0.40780702  0.94586093  0.97721102     0.00800
C104        C  0.41646960  0.98629350  0.96818855    -0.11400
C105        C  0.38670229  0.01651045  0.97017293     0.03200
C106        C  0.34727754  0.00576341  0.97965636    -0.10800
H107        H  0.35964019  0.90619101  0.99493185     0.08800
H108        H  0.44620712  0.99469317  0.95899209     0.06400
H109        H  0.32391924  0.02852479  0.98133145     0.06200
C110        C  0.33613423  0.95582325  0.49034265     0.03300
C111        C  0.36671894  0.92655807  0.48921173    -0.12900
C112        C  0.40747315  0.93740452  0.48422124     0.00800
C113        C  0.41635275  0.97891460  0.48173543    -0.11400
C114        C  0.38612157  0.00832689  0.48577687     0.03200
C115        C  0.34627098  0.99637926  0.48950615    -0.10800
H116        H  0.35801321  0.89558484  0.49200313     0.08800
H117        H  0.44657192  0.98905442  0.47667642     0.06400
H118        H  0.32270209  0.01895806  0.49121073     0.06200
O119        O  0.40021169  0.40791942  0.87265659    -0.78400
C120        C  0.42360860  0.31639700  0.96084506     0.82700
O121        O  0.32881108  0.45476594  0.98227659    -0.79500
O122        O  0.44399365  0.40481342  0.05108282    -0.81000
O123        O  0.51949658  0.44920730  0.93996984    -0.80800
O124        O  0.44886121  0.45300129  0.87233517    -0.79400
Zn125      Zn  0.38978952  0.39546463  0.92831175     1.55700
O126        O  0.51781503  0.40470924  0.98712452    -0.80800
Cd127      Cd  0.45972898  0.46204677  0.92924907     1.59700
Cd128      Cd  0.38900174  0.46481987  0.99328237     1.59600
O129        O  0.45145187  0.52237340  0.94039861    -0.80800
O130        O  0.42321058  0.42859360  0.96101673    -1.91300
Cd131      Cd  0.45702482  0.39398331  0.99482187     1.59900
O132        O  0.40221372  0.52475304  0.98313916    -0.80700
O133        O  0.44622592  0.33396876  0.98461098    -0.79400
C134        C  0.31094612  0.43029415  0.96037726     0.83100
C135        C  0.42404814  0.43101933  0.85470383     0.82800
O136        O  0.40155059  0.33609678  0.93761960    -0.78300
C137        C  0.53732846  0.42694907  0.96422695     0.83600
O138        O  0.33051633  0.40638866  0.93875186    -0.78400
C139        C  0.42807880  0.54220956  0.96219301     0.83700
C140        C  0.42104555  0.42938585  0.06856785     0.84100
O141        O  0.39851270  0.45418442  0.05079286    -0.80900
O142        O  0.33281544  0.40423866  0.43833292    -0.78400
C143        C  0.42853889  0.41933387  0.35529991     0.82700
O144        O  0.44389175  0.32534359  0.48569586    -0.79500
O145        O  0.52468135  0.43608130  0.44014587    -0.81000
O146        O  0.40831798  0.51827435  0.47938802    -0.80800
O147        O  0.33388545  0.45170968  0.48245933    -0.79400
Zn148      Zn  0.39115440  0.38841518  0.42948038     1.55700
O149        O  0.45888729  0.51384321  0.43817500    -0.80800
Cd150      Cd  0.39466219  0.45903792  0.49209410     1.59700
Cd151      Cd  0.45900303  0.38431111  0.49425607     1.59600
O152        O  0.40548393  0.44936695  0.54936154    -0.80800
O153        O  0.42702893  0.42065973  0.46059030    -1.91300
Cd154      Cd  0.46540414  0.45234598  0.42883303     1.59900
O155        O  0.44810910  0.39767037  0.55047698    -0.80700
O156        O  0.45386474  0.44165055  0.37206124    -0.79400
C157        C  0.41894395  0.30836300  0.46383448     0.83100
C158        C  0.31454012  0.42896419  0.46006489     0.82800
O159        O  0.40408418  0.39772855  0.37409492    -0.78300
C160        C  0.43468559  0.53474395  0.45832584     0.83600
O161        O  0.39668201  0.32858029  0.44122862    -0.78400
C162        C  0.42690397  0.42395763  0.56765522     0.83700
C163        C  0.54103635  0.41052273  0.46245287     0.84100
O164        O  0.52015766  0.38861512  0.48448387    -0.80900
C165        C  0.42304604  0.43202672  0.81236873    -0.19800
C166        C  0.44340394  0.46179808  0.79100247     0.36500
C167        C  0.44296597  0.46009305  0.75114029    -0.25700
C168        C  0.42211370  0.42999625  0.73211250     0.02900
C169        C  0.40077076  0.40114891  0.75298411     0.27700
C170        C  0.40159331  0.40228454  0.79285553    -0.24800
N171        N  0.46425399  0.49381390  0.80958253    -0.82200
H172        H  0.45897763  0.48236845  0.73470358     0.13500
C173        C  0.42324473  0.42877342  0.69016552     0.02900
N174        N  0.37840826  0.37082406  0.73349366    -0.80800
H175        H  0.38558518  0.37956714  0.80869361     0.18300
C176        C  0.44505102  0.39817078  0.67219514    -0.25700
C177        C  0.44754942  0.39612823  0.63241580     0.36400
C178        C  0.42685431  0.42513331  0.61000318    -0.19700
C179        C  0.40496291  0.45577811  0.62849497    -0.24900
C180        C  0.40306273  0.45790903  0.66827779     0.27700
H181        H  0.46068555  0.37606686  0.68943413     0.13500
N182        N  0.47093206  0.36461931  0.61507039    -0.82200
H183        H  0.38906854  0.47823500  0.61193012     0.18400
N184        N  0.38054883  0.48938412  0.68662365    -0.80800
H185        H  0.48188262  0.34461712  0.63557788     0.34000
H186        H  0.49615348  0.37787732  0.60277842     0.38500
H187        H  0.36756656  0.50859617  0.66649595     0.34000
H188        H  0.35688448  0.47605033  0.70137701     0.30600
H189        H  0.36438683  0.35175078  0.75292917     0.34000
H190        H  0.35549771  0.38529013  0.71834319     0.30600
H191        H  0.44267989  0.51180450  0.82307979     0.38500
H192        H  0.47855530  0.51220486  0.78974474     0.34000
C193        C  0.42097642  0.42847710  0.11070605    -0.19800
C194        C  0.41212948  0.46285004  0.13283967     0.36500
C195        C  0.41416545  0.46020697  0.17267194    -0.25700
C196        C  0.42484169  0.42411143  0.19069397     0.02900
C197        C  0.43333627  0.38981529  0.16879045     0.27700
C198        C  0.43131585  0.39233262  0.12908309    -0.24800
N199        N  0.40184690  0.50038198  0.11497542    -0.82200
H200        H  0.40752907  0.48640358  0.18982935     0.13500
C201        C  0.42658049  0.42242581  0.23264570     0.02900
N202        N  0.44423747  0.35265333  0.18702872    -0.80800
H203        H  0.43790239  0.36581422  0.11236802     0.18300
C204        C  0.39866483  0.39908037  0.25228823    -0.25700
C205        C  0.39842067  0.39736871  0.29215073     0.36400
C206        C  0.42741549  0.41920110  0.31293516    -0.19700
C207        C  0.45584879  0.44202209  0.29277134    -0.24900
C208        C  0.45572025  0.44379750  0.25292038     0.27700
H209        H  0.37640564  0.38270170  0.23632465     0.13500
N210        N  0.36854314  0.37382943  0.31124725    -0.82200
H211        H  0.47838232  0.45867932  0.30807073     0.18400
N212        N  0.48514397  0.46704462  0.23288575    -0.80800
H213        H  0.35129189  0.35794962  0.29170130     0.34000
H214        H  0.34880973  0.39379632  0.32475264     0.38500
H215        H  0.50442018  0.48114996  0.25195622     0.34000
H216        H  0.50282679  0.44714330  0.21699939     0.30600
H217        H  0.44923973  0.33014904  0.16688635     0.34000
H218        H  0.47155430  0.35702189  0.20091044     0.30600
H219        H  0.42712440  0.51009375  0.10002670     0.38500
H220        H  0.39560806  0.52233316  0.13536595     0.34000
C221        C  0.39520107  0.05193989  0.48452715    -0.19800
C222        C  0.37929628  0.07854087  0.51208789     0.36500
C223        C  0.38394692  0.12011082  0.50734651    -0.25700
C224        C  0.40455035  0.13569111  0.47594087     0.02900
C225        C  0.42194776  0.10914434  0.44927822     0.27700
C226        C  0.41720708  0.06750253  0.45391741    -0.24800
N227        N  0.35836572  0.06318131  0.54470361    -0.82200
H228        H  0.37142168  0.14055709  0.52821701     0.13500
C229        C  0.40777443  0.17990638  0.47149777     0.02900
N230        N  0.44346861  0.12465821  0.41710730    -0.80800
H231        H  0.42932503  0.04719476  0.43273386     0.18300
C232        C  0.44583543  0.19743473  0.47100584    -0.25700
C233        C  0.45024916  0.23922184  0.46811050     0.36400
C234        C  0.41571146  0.26406823  0.46531184    -0.19700
C235        C  0.37760428  0.24641276  0.46483260    -0.24900
C236        C  0.37326599  0.20456202  0.46812409     0.27700
H237        H  0.47224019  0.17838986  0.47353514     0.13500
N238        N  0.48972985  0.25629008  0.46686063    -0.82200
H239        H  0.35112936  0.26541131  0.46263573     0.18400
N240        N  0.33402981  0.18695294  0.46806708    -0.80800
H241        H  0.51162432  0.23367115  0.46525251     0.34000
H242        H  0.49452727  0.27081416  0.49268836     0.38500
H243        H  0.31181488  0.20916259  0.46558471     0.34000
H244        H  0.33194522  0.16898411  0.44386944     0.30600
H245        H  0.45450749  0.10123114  0.40025517     0.34000
H246        H  0.42301402  0.14079714  0.40040566     0.30600
H247        H  0.37892115  0.04636109  0.56066499     0.38500
H248        H  0.34836464  0.08664046  0.56209341     0.34000
C249        C  0.39698125  0.05951463  0.96349083    -0.19800
C250        C  0.37251576  0.08501206  0.94097886     0.36500
C251        C  0.38091053  0.12625607  0.93899625    -0.25700
C252        C  0.41395558  0.14260401  0.95796807     0.02900
C253        C  0.43981266  0.11678745  0.97857619     0.27700
C254        C  0.43087973  0.07566948  0.98137123    -0.24800
N255        N  0.33920269  0.06898877  0.92023346    -0.82200
H256        H  0.36099658  0.14595517  0.92317123     0.13500
C257        C  0.41936116  0.18703351  0.95797741     0.02900
N258        N  0.47479209  0.13252789  0.99692071    -0.80800
H259        H  0.44993944  0.05630733  0.99844985     0.18300
C260        C  0.42165100  0.20728293  0.99282479    -0.25700
C261        C  0.42349999  0.24938779  0.99444359     0.36400
C262        C  0.42273483  0.27191305  0.96041292    -0.19700
C263        C  0.42076230  0.25173306  0.92553726    -0.24900
C264        C  0.41963034  0.20954245  0.92392467     0.27700
H265        H  0.42076067  0.19017781  0.01900308     0.13500
N266        N  0.42485667  0.26935079  0.03056834    -0.82200
H267        H  0.42063402  0.26897540  0.89941555     0.18400
N268        N  0.41889216  0.18945238  0.88786856    -0.80800
H269        H  0.42551485  0.24845783  0.05275824     0.34000
H270        H  0.39816636  0.28579132  0.03362196     0.38500
H271        H  0.41913055  0.21027583  0.86561901     0.34000
H272        H  0.44539604  0.17258719  0.88553196     0.30600
H273        H  0.49053145  0.10971074  0.01106586     0.34000
H274        H  0.49388855  0.14332684  0.97571845     0.30600
H275        H  0.35079578  0.04904428  0.90005594     0.38500
H276        H  0.32422445  0.09169293  0.90520803     0.34000
C277        C  0.05667916  0.45453452  0.46241678    -0.19800
C278        C  0.07744075  0.43295453  0.49092221     0.36500
C279        C  0.11935549  0.42831116  0.48826846    -0.25700
C280        C  0.14088447  0.44482774  0.45787100     0.02900
C281        C  0.12002047  0.46608634  0.42905996     0.27700
C282        C  0.07821694  0.47072126  0.43180066    -0.24800
N283        N  0.05626245  0.41777646  0.52346290    -0.82200
H284        H  0.13552574  0.41241492  0.51042875     0.13500
C285        C  0.18523005  0.44100961  0.45811976     0.02900
N286        N  0.14008405  0.48344492  0.39685559    -0.80800
H287        H  0.06240529  0.48764192  0.41008005     0.18300
C288        C  0.20349075  0.40649441  0.44313983    -0.25700
C289        C  0.24550494  0.40139257  0.44377998     0.36400
C290        C  0.26981497  0.43195936  0.45929863    -0.19700
C291        C  0.25103669  0.46635620  0.47460858    -0.24900
C292        C  0.20907780  0.47113720  0.47419355     0.27700
H293        H  0.18476587  0.38326065  0.43129310     0.13500
N294        N  0.26327841  0.36501223  0.42935515    -0.82200
H295        H  0.26915063  0.48989294  0.48673747     0.18400
N296        N  0.19047210  0.50618242  0.49052954    -0.80800
H297        H  0.24127622  0.34612544  0.41841098     0.34000
H298        H  0.27619352  0.34975348  0.45232577     0.38500
H299        H  0.21214478  0.52514454  0.50195402     0.34000
H300        H  0.17652027  0.52217739  0.46859166     0.30600
H301        H  0.13646851  0.51461062  0.39857908     0.34000
H302        H  0.17087365  0.47760079  0.39720416     0.30600
H303        H  0.03806588  0.39436852  0.51429044     0.38500
H304        H  0.07634307  0.40510406  0.54296274     0.34000
C305        C  0.05296979  0.44916526  0.95635886    -0.19800
C306        C  0.07734186  0.47021869  0.93031589     0.36500
C307        C  0.11903041  0.46312345  0.92991327    -0.25700
C308        C  0.13683134  0.43536245  0.95488511     0.02900
C309        C  0.11228991  0.41309286  0.97975121     0.27700
C310        C  0.07060263  0.42013492  0.98013997    -0.24800
N311        N  0.05971871  0.49919657  0.90489306    -0.82200
H312        H  0.13792671  0.48018350  0.91083363     0.13500
C313        C  0.18135856  0.43179957  0.95627307     0.02900
N314        N  0.12996227  0.38401778  0.00502871    -0.80800
H315        H  0.05196444  0.40409370  0.00022497     0.18300
C316        C  0.20127711  0.44093523  0.99016676    -0.25700
C317        C  0.24340453  0.43976475  0.99245684     0.36400
C318        C  0.26629234  0.42986484  0.95985337    -0.19700
C319        C  0.24621955  0.41989985  0.92612197    -0.24900
C320        C  0.20400554  0.42074980  0.92401932     0.27700
H321        H  0.18378579  0.44937058  0.01491575     0.13500
N322        N  0.26291807  0.44818260  0.02789355    -0.82200
H323        H  0.26354186  0.41204356  0.90111010     0.18400
N324        N  0.18400180  0.41050929  0.88929565    -0.80800
H325        H  0.24180296  0.45520011  0.04890911     0.34000
H326        H  0.27747166  0.42184377  0.03672333     0.38500
H327        H  0.20491338  0.40322470  0.86817856     0.34000
H328        H  0.16734654  0.38460829  0.89442842     0.30600
H329        H  0.10788437  0.37050767  0.02174960     0.34000
H330        H  0.14274286  0.36131804  0.98837649     0.30600
H331        H  0.04048431  0.48382420  0.88671319     0.38500
H332        H  0.08175491  0.51227234  0.88781090     0.34000
C333        C  0.08129220  0.92516535  0.50684064    -0.19800
C334        C  0.10481127  0.89102124  0.49728088     0.36500
C335        C  0.14695920  0.89364590  0.49745455    -0.25700
C336        C  0.16597201  0.92959636  0.50674089     0.02900
C337        C  0.14273799  0.96327131  0.51741705     0.27700
C338        C  0.10067862  0.96061852  0.51771451    -0.24800
N339        N  0.08593569  0.85394615  0.48716461    -0.82200
H340        H  0.16509850  0.86793258  0.48922485     0.13500
C341        C  0.20994994  0.93296525  0.50168487     0.02900
N342        N  0.16204449  0.00032635  0.52690012    -0.80800
H343        H  0.08294648  0.98686446  0.52517636     0.18300
C344        C  0.22419687  0.95626201  0.47151760    -0.25700
C345        C  0.26542729  0.96203535  0.46610811     0.36400
C346        C  0.29304341  0.94492538  0.49204481    -0.19700
C347        C  0.27888438  0.92004627  0.52131396    -0.24900
C348        C  0.23741018  0.91388924  0.52639712     0.27700
H349        H  0.20290521  0.97014135  0.45219448     0.13500
N350        N  0.27946107  0.98545162  0.43448754    -0.82200
H351        H  0.30007575  0.90675415  0.54107131     0.18400
N352        N  0.22302000  0.88918499  0.55692301    -0.80800
H353        H  0.25534815  0.99607622  0.41826208     0.34000
H354        H  0.29624289  0.96635943  0.41693885     0.38500
H355        H  0.24707580  0.87720370  0.57238421     0.34000
H356        H  0.20685669  0.90767693  0.57552400     0.30600
H357        H  0.14073558  0.02243410  0.53361841     0.34000
H358        H  0.17898234  0.99531204  0.55143867     0.30600
H359        H  0.07072950  0.84348791  0.51116973     0.38500
H360        H  0.10748027  0.83210221  0.48033469     0.34000
C361        C  0.92531831  0.76919280  0.49588478    -0.19800
C362        C  0.91377715  0.74520572  0.52720757     0.36500
C363        C  0.91616697  0.70312999  0.52430477    -0.25700
C364        C  0.93014002  0.68464497  0.49104864     0.02900
C365        C  0.94147640  0.70835609  0.45977574     0.27700
C366        C  0.93873284  0.75030861  0.46242300    -0.24800
N367        N  0.90079348  0.76345260  0.56213307    -0.82200
H368        H  0.90800071  0.68457802  0.54836704     0.13500
C369        C  0.93577120  0.64053625  0.49026360     0.02900
N370        N  0.95640365  0.68970300  0.42571804    -0.80800
H371        H  0.94750777  0.76837228  0.43822781     0.18300
C372        C  0.91025160  0.61681807  0.46827095    -0.25700
C373        C  0.91682798  0.57514725  0.46486703     0.36400
C374        C  0.94958102  0.55698786  0.48411132    -0.19700
C375        C  0.97407508  0.58088714  0.50718943    -0.24900
C376        C  0.96778774  0.62245140  0.51010557     0.27700
H377        H  0.88570792  0.63107554  0.45307508     0.13500
N378        N  0.89112860  0.55159303  0.44113581    -0.82200
H379        H  0.99886571  0.56713094  0.52241816     0.18400
N380        N  0.99429734  0.64659040  0.53249359    -0.80800
H381        H  0.90839935  0.54087521  0.41846165     0.34000
H382        H  0.86834299  0.56947577  0.42939968     0.38500
H383        H  0.01627155  0.62868040  0.54546133     0.34000
H384        H  0.00938610  0.66588731  0.51398887     0.30600
H385        H  0.96321028  0.71137368  0.40523165     0.34000
H386        H  0.98343556  0.67519718  0.43244056     0.30600
H387        H  0.92532445  0.77860712  0.57350389     0.38500
H388        H  0.89287398  0.74153925  0.58200764     0.34000
C389        C  0.08224651  0.93018286  0.99571732    -0.19800
C390        C  0.10646868  0.90278347  0.01674079     0.36500
C391        C  0.14847732  0.90722646  0.01693569    -0.25700
C392        C  0.16691390  0.93790138  0.99628719     0.02900
C393        C  0.14326214  0.96462294  0.97469145     0.27700
C394        C  0.10129357  0.96049294  0.97453210    -0.24800
N395        N  0.08862728  0.87039974  0.03765656    -0.82200
H396        H  0.16705563  0.88655202  0.03311243     0.13500
C397        C  0.21121012  0.94168303  0.99692913     0.02900
N398        N  0.16209261  0.99587556  0.95301276    -0.80800
H399        H  0.08340343  0.98154641  0.95813493     0.18300
C400        C  0.23323010  0.92611466  0.96628341    -0.25700
C401        C  0.27459352  0.93224017  0.96321106     0.36400
C402        C  0.29474214  0.95448672  0.99136678    -0.19700
C403        C  0.27292791  0.96925130  0.02254652    -0.24900
C404        C  0.23141995  0.96301466  0.02582156     0.27700
H405        H  0.21788487  0.90999485  0.94399336     0.13500
N406        N  0.29501974  0.91717131  0.93028592    -0.82200
H407        H  0.28817336  0.98643372  0.04416621     0.18400
N408        N  0.21091111  0.97930090  0.05837645    -0.80800
H409        H  0.31715582  0.89676347  0.93894986     0.34000
H410        H  0.30880456  0.94116203  0.91638901     0.38500
H411        H  0.21300686  0.01055348  0.05690704     0.34000
H412        H  0.18039707  0.97259897  0.05825907     0.30600
H413        H  0.14059328  0.01281265  0.93829411     0.34000
H414        H  0.17575432  0.01537124  0.97216386     0.30600
H415        H  0.07623801  0.85069461  0.01791350     0.38500
H416        H  0.11050083  0.85400744  0.05242706     0.34000
C417        C  0.95060630  0.55398838  0.98770651    -0.19800
C418        C  0.91709594  0.57365621  0.97120535     0.36500
C419        C  0.91206440  0.61532581  0.97603958    -0.25700
C420        C  0.94057588  0.63821373  0.99554458     0.02900
C421        C  0.97349405  0.61846112  0.01283054     0.27700
C422        C  0.97761794  0.57661795  0.00939074    -0.24800
N423        N  0.88913459  0.55171610  0.94838695    -0.82200
H424        H  0.88636873  0.63033316  0.96340287     0.13500
C425        C  0.93633881  0.68285814  0.99636786     0.02900
N426        N  0.00335961  0.64104735  0.03275141    -0.80800
H427        H  0.00297741  0.56169793  0.02270287     0.18300
C428        C  0.93761590  0.70322700  0.03122645    -0.25700
C429        C  0.93480093  0.74535192  0.03291297     0.36400
C430        C  0.93003160  0.76761859  0.99902953    -0.19700
C431        C  0.92770970  0.74727534  0.96429781    -0.24900
C432        C  0.93149547  0.70525772  0.96250297     0.27700
H433        H  0.94065836  0.68613396  0.05727612     0.13500
N434        N  0.93619660  0.76553474  0.06892001    -0.82200
H435        H  0.92430003  0.76438604  0.93828237     0.18400
N436        N  0.93135509  0.68534203  0.92633091    -0.80800
H437        H  0.94005182  0.74487102  0.09102271     0.34000
H438        H  0.90827909  0.77938870  0.07327349     0.38500
H439        H  0.92734777  0.70605253  0.90428645     0.34000
H440        H  0.95970269  0.67227066  0.92238645     0.30600
H441        H  0.02549059  0.62198731  0.04393001     0.34000
H442        H  0.01764195  0.65950387  0.01295429     0.30600
H443        H  0.90454572  0.54137796  0.92439128     0.38500
H444        H  0.86615417  0.57060550  0.93856021     0.34000
C445        C  0.91995364  0.92271016  0.84884733    -0.19800
C446        C  0.92087597  0.88639077  0.82827869     0.36500
C447        C  0.91913093  0.88756181  0.78840203    -0.25700
C448        C  0.91612701  0.92421592  0.76899977     0.02900
C449        C  0.91424831  0.96040837  0.78948412     0.27700
C450        C  0.91660235  0.95932653  0.82927336    -0.24800
N451        N  0.92440795  0.84863509  0.84788070    -0.82200
H452        H  0.92060074  0.85990716  0.77231279     0.13500
C453        C  0.91663272  0.92448841  0.72708256     0.02900
N454        N  0.90946562  0.99797378  0.76976518    -0.80800
H455        H  0.91532801  0.98713068  0.84514914     0.18300
C456        C  0.88035966  0.92305753  0.70708250    -0.25700
C457        C  0.87996365  0.92406395  0.66713270     0.36400
C458        C  0.91667329  0.92642040  0.64711898    -0.19700
C459        C  0.95285247  0.92812053  0.66735339    -0.24900
C460        C  0.95322110  0.92691617  0.70718021     0.27700
H461        H  0.85237542  0.92148196  0.72273529     0.13500
N462        N  0.84254266  0.92352663  0.64690071    -0.82200
H463        H  0.98099347  0.92975097  0.65195799     0.18400
N464        N  0.99057589  0.92751192  0.72754432    -0.80800
H465        H  0.81842311  0.92168367  0.66585609     0.34000
H466        H  0.83949862  0.95101622  0.63278050     0.38500
H467        H  0.01480176  0.92855118  0.70863982     0.34000
H468        H  0.99138207  0.95403805  0.74325500     0.30600
H469        H  0.90773249  0.02173623  0.78906621     0.34000
H470        H  0.93523584  0.00261174  0.75345367     0.30600
H471        H  0.95232419  0.84796028  0.86139052     0.38500
H472        H  0.92447640  0.82483945  0.82858685     0.34000
C473        C  0.92217247  0.92534653  0.14660729    -0.19800
C474        C  0.92192180  0.88923149  0.16763268     0.36500
C475        C  0.92116396  0.89078121  0.20753456    -0.25700
C476        C  0.92107834  0.92761231  0.22668005     0.02900
C477        C  0.92203817  0.96371303  0.20575320     0.27700
C478        C  0.92186394  0.96219940  0.16584565    -0.24800
N479        N  0.92204242  0.85121813  0.14840382    -0.82200
H480        H  0.92085194  0.86318546  0.22386661     0.13500
C481        C  0.92192472  0.92765757  0.26870439     0.02900
N482        N  0.92495142  0.00156577  0.22503657    -0.80800
H483        H  0.92259648  0.98986288  0.14962933     0.18300
C484        C  0.95868181  0.92168115  0.28724099    -0.25700
C485        C  0.96097266  0.92081633  0.32712678     0.36400
C486        C  0.92557923  0.92600532  0.34886782    -0.19700
C487        C  0.88874643  0.93176790  0.33004947    -0.24900
C488        C  0.88648322  0.93225218  0.29020035     0.27700
H489        H  0.98571189  0.91782823  0.27041643     0.13500
N490        N  0.99912885  0.91532134  0.34548556    -0.82200
H491        H  0.86143304  0.93521020  0.34653339     0.18400
N492        N  0.84824873  0.93589860  0.27154827    -0.80800
H493        H  0.02197705  0.91145597  0.32538937     0.34000
H494        H  0.00549682  0.94178886  0.36007786     0.38500
H495        H  0.82503568  0.93773800  0.29153332     0.34000
H496        H  0.84770041  0.96292284  0.25653620     0.30600
H497        H  0.92684763  0.02509831  0.20542422     0.34000
H498        H  0.89848151  0.00630153  0.24032233     0.30600
H499        H  0.89521629  0.84924124  0.13319951     0.38500
H500        H  0.92206049  0.82760202  0.16800076     0.34000
C501        C  0.45255099  0.79223744  0.47099776    -0.19800
C502        C  0.43398219  0.77574320  0.43868864     0.36500
C503        C  0.42853281  0.73386936  0.43658123    -0.25700
C504        C  0.44157699  0.70845970  0.46602156     0.02900
C505        C  0.45884305  0.72512172  0.49878795     0.27700
C506        C  0.46438269  0.76676670  0.50084017    -0.24800
N507        N  0.42183809  0.80135208  0.40782703    -0.82200
H508        H  0.41515847  0.72084486  0.41150886     0.13500
C509        C  0.43893431  0.66425072  0.46177890     0.02900
N510        N  0.47100396  0.69952049  0.52967267    -0.80800
H511        H  0.47828879  0.77952701  0.52579157     0.18300
C512        C  0.47422497  0.64199017  0.45549918    -0.25700
C513        C  0.47364231  0.59984355  0.45290941     0.36400
C514        C  0.43686981  0.57939808  0.45757854    -0.19700
C515        C  0.40149187  0.60200436  0.46353467    -0.24900
C516        C  0.40214993  0.64419341  0.46552439     0.27700
H517        H  0.50242924  0.65769799  0.45276042     0.13500
N518        N  0.51049466  0.57789562  0.44710834    -0.82200
H519        H  0.37317892  0.58664317  0.46690239     0.18400
N520        N  0.36577096  0.66672959  0.47189365    -0.80800
H521        H  0.53499867  0.59727417  0.44743024     0.34000
H522        H  0.50962984  0.56585554  0.41975312     0.38500
H523        H  0.34120625  0.64751755  0.47379736     0.34000
H524        H  0.36824537  0.68080692  0.49826880     0.30600
H525        H  0.48342204  0.71642591  0.55161133     0.34000
H526        H  0.44514820  0.68627277  0.54072909     0.30600
H527        H  0.44774056  0.81402302  0.39627377     0.38500
H528        H  0.40868396  0.78451231  0.38623441     0.34000
C529        C  0.55440216  0.89772386  0.49269193    -0.19800
C530        C  0.57919181  0.87590834  0.51789059     0.38900
C531        C  0.62038450  0.88379707  0.51938729    -0.25700
C532        C  0.63748680  0.91393175  0.49683367     0.02900
C533        C  0.61241491  0.93735832  0.47302886     0.27700
C534        C  0.57114298  0.92883596  0.47103046    -0.24800
N535        N  0.56255614  0.84579216  0.54220380    -0.82200
H536        H  0.63925355  0.86562670  0.53777418     0.13500
C537        C  0.68185021  0.91896858  0.49711666     0.02900
N538        N  0.62903477  0.96942403  0.45080078    -0.80800
H539        H  0.55214368  0.94584194  0.45180032     0.18300
C540        C  0.70312459  0.91697474  0.46268099    -0.25700
C541        C  0.74522446  0.91897252  0.46184419     0.36400
C542        C  0.76650499  0.92245440  0.49622073    -0.19700
C543        C  0.74541678  0.92433898  0.53066198    -0.24900
C544        C  0.70324318  0.92333948  0.53143823     0.27700
H545        H  0.68684673  0.91286791  0.43640105     0.13500
N546        N  0.76650827  0.91640320  0.42635405    -0.82200
H547        H  0.76192846  0.92736009  0.55696582     0.18400
N548        N  0.68202842  0.92702480  0.56686023    -0.80800
H549        H  0.74641716  0.91409063  0.40371865     0.34000
H550        H  0.78342743  0.88981900  0.42667801     0.38500
H551        H  0.70215232  0.92998456  0.58939596     0.34000
H552        H  0.66517437  0.95362474  0.56578390     0.30600
H553        H  0.60667058  0.98358962  0.43471198     0.34000
H554        H  0.63991898  0.99090355  0.46965672     0.30600
H555        H  0.56872528  0.85364004  0.57030358     0.38500
H556        H  0.57720274  0.81858403  0.53649268     0.34000
C557        C  0.45052021  0.79933654  0.97180957    -0.19800
C558        C  0.42453073  0.78222164  0.94472761     0.36500
C559        C  0.41867225  0.74038431  0.94476037    -0.25700
C560        C  0.43860215  0.71550926  0.97093847     0.02900
C561        C  0.46343719  0.73259082  0.99867665     0.27700
C562        C  0.46913339  0.77424494  0.99884641    -0.24800
N563        N  0.40522739  0.80704508  0.91665050    -0.82200
H564        H  0.39952463  0.72691615  0.92357426     0.13500
C565        C  0.43502502  0.67136772  0.96798856     0.02900
N566        N  0.48306123  0.70741005  0.02630381    -0.80800
H567        H  0.48848767  0.78726741  0.02012166     0.18300
C568        C  0.46768817  0.64909593  0.95404789    -0.25700
C569        C  0.46636810  0.60701535  0.95186683     0.36400
C570        C  0.43116007  0.58674432  0.96353937    -0.19700
C571        C  0.39847213  0.60941489  0.97748582    -0.24900
C572        C  0.40015146  0.65148393  0.97996951     0.27700
H573        H  0.49456350  0.66471983  0.94527526     0.13500
N574        N  0.50095472  0.58499891  0.93856879    -0.82200
H575        H  0.37145528  0.59428486  0.98658230     0.18400
N576        N  0.36678046  0.67411423  0.99490615    -0.80800
H577        H  0.52377733  0.60454276  0.93034169     0.34000
H578        H  0.51220201  0.56837811  0.96146942     0.38500
H579        H  0.34328012  0.65501333  0.00231118     0.34000
H580        H  0.37624524  0.68769390  0.02002593     0.30600
H581        H  0.50057417  0.72459630  0.04459096     0.34000
H582        H  0.46073334  0.69427862  0.04300323     0.30600
H583        H  0.42764404  0.81916311  0.89939519     0.38500
H584        H  0.38702494  0.78978312  0.89903373     0.34000
C585        C  0.55446292  0.90448360  0.98294672    -0.19800
C586        C  0.57324559  0.93309801  0.95933766     0.36500
C587        C  0.61507110  0.93838627  0.96183412    -0.25700
C588        C  0.63832112  0.91545052  0.98719194     0.02900
C589        C  0.61944680  0.88748287  0.01123524     0.27700
C590        C  0.57775567  0.88255597  0.00908049    -0.24800
N591        N  0.55006225  0.95581958  0.93229309    -0.82200
H592        H  0.62975496  0.95995950  0.94354692     0.13500
C593        C  0.68258265  0.92000032  0.98800443     0.02900
N594        N  0.64289159  0.86354912  0.03716164    -0.80800
H595        H  0.56336577  0.86076654  0.02735841     0.18300
C596        C  0.70094657  0.93262013  0.02162094    -0.25700
C597        C  0.74294422  0.93370707  0.02495034     0.36400
C598        C  0.76720826  0.92254690  0.99360343    -0.19700
C599        C  0.74862877  0.91063740  0.95966731    -0.24900
C600        C  0.70657492  0.90912677  0.95659118     0.27700
H601        H  0.68229844  0.94072106  0.04571067     0.13500
N602        N  0.76088366  0.94501909  0.06039364    -0.82200
H603        H  0.76699126  0.90230335  0.93546187     0.18400
N604        N  0.68814528  0.89591671  0.92198294    -0.80800
H605        H  0.73883407  0.95277924  0.08029183     0.34000
H606        H  0.77581013  0.91974098  0.07121901     0.38500
H607        H  0.70997365  0.88924195  0.90152065     0.34000
H608        H  0.67329549  0.86909543  0.92784406     0.30600
H609        H  0.62443954  0.84453777  0.05296470     0.34000
H610        H  0.66181543  0.84505971  0.02102037     0.30600
H611        H  0.53867251  0.93567017  0.91240798     0.38500
H612        H  0.56838974  0.97566034  0.91731829     0.34000
C613        C  0.90795888  0.29598925  0.49162151    -0.19800
C614        C  0.88859821  0.27225862  0.51930840     0.36500
C615        C  0.89504600  0.23062224  0.51967561    -0.25700
C616        C  0.92062266  0.21220515  0.49316816     0.02900
C617        C  0.94127783  0.23599794  0.46645922     0.27700
C618        C  0.93487800  0.27779447  0.46607950    -0.24800
N619        N  0.86170144  0.29051357  0.54633276    -0.82200
H620        H  0.87918286  0.21222634  0.54009118     0.13500
C621        C  0.92386279  0.16779215  0.49296691     0.02900
N622        N  0.96792159  0.21748738  0.43939763    -0.80800
H623        H  0.94949300  0.29601340  0.44470579     0.18300
C624        C  0.91177288  0.14659205  0.46067592    -0.25700
C625        C  0.91171506  0.10440646  0.46029073     0.36400
C626        C  0.92359767  0.08297352  0.49323864    -0.19700
C627        C  0.93636150  0.10443401  0.52526562    -0.24900
C628        C  0.93661071  0.14654924  0.52546022     0.27700
H629        H  0.90179592  0.16311020  0.43583956     0.13500
N630        N  0.89981723  0.08345569  0.42654605    -0.82200
H631        H  0.94562089  0.08831517  0.55056323     0.18400
N632        N  0.94947188  0.16792356  0.55862118    -0.80800
H633        H  0.89133317  0.10370391  0.40524522     0.34000
H634        H  0.92502335  0.06794856  0.41631838     0.38500
H635        H  0.95759515  0.14792027  0.58024194     0.34000
H636        H  0.97537314  0.18368101  0.55131780     0.30600
H637        H  0.98045631  0.23912291  0.42150269     0.34000
H638        H  0.99166740  0.20445375  0.45451175     0.30600
H639        H  0.87858967  0.30969413  0.56330381     0.38500
H640        H  0.84950974  0.26885684  0.56441404     0.34000
C641        C  0.79944570  0.39558233  0.47221544    -0.19800
C642        C  0.78061225  0.40863580  0.43857265     0.36500
C643        C  0.73845274  0.41181733  0.43751335    -0.25700
C644        C  0.71498280  0.40202203  0.46940140     0.02900
C645        C  0.73407226  0.38978442  0.50326539     0.27700
C646        C  0.77606165  0.38643570  0.50420349    -0.24800
N647        N  0.80423738  0.41749557  0.40545912    -0.82200
H648        H  0.72372839  0.42102993  0.41147652     0.13500
C649        C  0.67044963  0.40417444  0.46689364     0.02900
N650        N  0.71070727  0.38079368  0.53652829    -0.80800
H651        H  0.79076553  0.37624651  0.52995275     0.18300
C652        C  0.64775443  0.36981837  0.47471606    -0.25700
C653        C  0.60553920  0.37081440  0.47318064     0.36400
C654        C  0.58556082  0.40703583  0.46331422    -0.19700
C655        C  0.60847141  0.44113901  0.45490972    -0.24900
C656        C  0.65058794  0.44023030  0.45708336     0.27700
H657        H  0.66313989  0.34203407  0.48188753     0.13500
N658        N  0.58307569  0.33511999  0.48118722    -0.82200
H659        H  0.59338260  0.46905308  0.44767784     0.18400
N660        N  0.67326555  0.47601328  0.45017113    -0.80800
H661        H  0.60231813  0.31134825  0.48844437     0.34000
H662        H  0.56859664  0.32674759  0.45616892     0.38500
H663        H  0.65418014  0.50001331  0.44328572     0.34000
H664        H  0.68748015  0.48364790  0.47555111     0.30600
H665        H  0.72933324  0.37194882  0.55895744     0.34000
H666        H  0.69636617  0.40732579  0.54503933     0.30600
H667        H  0.81820573  0.39082492  0.39676577     0.38500
H668        H  0.78576243  0.42677314  0.38308182     0.34000
C669        C  0.91782646  0.08218050  0.99523977    -0.19800
C670        C  0.92266459  0.10471444  0.02871023     0.36500
C671        C  0.91949367  0.14677758  0.02707749    -0.25700
C672        C  0.91018443  0.16652199  0.99290594     0.02900
C673        C  0.90534631  0.14385091  0.95942298     0.27700
C674        C  0.90993478  0.10190794  0.96083097    -0.24800
N675        N  0.93103955  0.08477504  0.06409260    -0.82200
H676        H  0.92366244  0.16430346  0.05261867     0.13500
C677        C  0.90566395  0.21095806  0.99238494     0.02900
N678        N  0.89519334  0.16350225  0.92430229    -0.80800
H679        H  0.90605150  0.08438341  0.93523760     0.18300
C680        C  0.93129933  0.23327928  0.96885797    -0.25700
C681        C  0.92682236  0.27511439  0.96499216     0.36400
C682        C  0.89701959  0.29538588  0.98633665    -0.19700
C683        C  0.87276198  0.27324226  0.01128713    -0.24900
C684        C  0.87581625  0.23137653  0.01388864     0.27700
H685        H  0.95418424  0.21770645  0.95250310     0.13500
N686        N  0.95141694  0.29672774  0.93847935    -0.82200
H687        H  0.84985468  0.28853087  0.02786027     0.18400
N688        N  0.84714199  0.21095532  0.03751240    -0.80800
H689        H  0.97190537  0.27737382  0.92517946     0.34000
H690        H  0.93262112  0.30799188  0.91716111     0.38500
H691        H  0.81850889  0.21804655  0.02726561     0.34000
H692        H  0.84969616  0.17987029  0.03533569     0.30600
H693        H  0.89279238  0.14258027  0.90236971     0.34000
H694        H  0.86675837  0.17658533  0.92764060     0.30600
H695        H  0.95907790  0.07066521  0.06154224     0.38500
H696        H  0.93351749  0.10564570  0.08605705     0.34000
C697        C  0.79437856  0.40190460  0.96292655    -0.19800
C698        C  0.76897684  0.38151213  0.93751371     0.36500
C699        C  0.72757568  0.38979110  0.93790072    -0.25700
C700        C  0.71105993  0.41825343  0.96285056     0.02900
C701        C  0.73653995  0.43972084  0.98726210     0.27700
C702        C  0.77800115  0.43134550  0.98702421    -0.24800
N703        N  0.78530233  0.35222569  0.91169825    -0.82200
H704        H  0.70788789  0.37339445  0.91916384     0.13500
C705        C  0.66681282  0.42384731  0.96389270     0.02900
N706        N  0.72010640  0.46952691  0.01245497    -0.80800
H707        H  0.79746829  0.44690869  0.00658768     0.18300
C708        C  0.64577048  0.41507513  0.99738204    -0.25700
C709        C  0.60357659  0.41679232  0.99860964     0.36400
C710        C  0.58194178  0.42680508  0.96530774    -0.19700
C711        C  0.60327907  0.43684232  0.93217595    -0.24900
C712        C  0.64543278  0.43560860  0.93118702     0.27700
H713        H  0.66238120  0.40624826  0.02251495     0.13500
N714        N  0.58279095  0.40866835  0.03357038    -0.82200
H715        H  0.58700640  0.44504263  0.90667403     0.18400
N716        N  0.66670240  0.44598468  0.89704417    -0.80800
H717        H  0.60312699  0.40143732  0.05514691     0.34000
H718        H  0.56829820  0.43520546  0.04189198     0.38500
H719        H  0.64660874  0.45382001  0.87544991     0.34000
H720        H  0.68353592  0.47158668  0.90278497     0.30600
H721        H  0.74281952  0.48237706  0.02873025     0.34000
H722        H  0.70794683  0.49254251  0.99572719     0.30600
H723        H  0.80450690  0.36718900  0.89304752     0.38500
H724        H  0.76257490  0.33977093  0.89515231     0.34000
loop_ 
_geom_bond_atom_site_label_1 
_geom_bond_atom_site_label_2 
_geom_bond_distance 
_geom_bond_site_symmetry_2 
_ccdc_geom_bond_type 
C1            C2   1.404       .  A
C1            C6   1.398       .  A
C1          C697   1.485       .  S
C2            C3   1.413       .  A
C2            H7   1.082       .  S
C3            C4   1.415       .  A
C3           C85   1.503       .  S
C4            C5   1.408       .  A
C4            H8   1.081       .  S
C5            C6   1.400       .  A
C5          C682   1.490       .  S
C6            H9   1.084       .  S
C10          C11   1.393       .  A
C10          C15   1.404       .  A
C10         C641   1.479       .  S
C11          C12   1.395       .  A
C11          H16   1.085       .  S
C12          C13   1.405       .  A
C12         C613   1.483       .  S
C13          C14   1.418       .  A
C13          H17   1.081       .  S
C14          C15   1.417       .  A
C14          C94   1.507       .  S
C15          H18   1.081       .  S
C19          C20   1.406       .  A
C19          C24   1.399       .  A
C19         C557   1.491       .  S
C20          C21   1.418       .  A
C20          H25   1.079       .  S
C21          C22   1.416       .  A
C21         C103   1.508       .  S
C22          C23   1.404       .  A
C22          H26   1.081       .  S
C23          C24   1.399       .  A
C23         C585   1.487       .  S
C24          H27   1.084       .  S
C28          C29   1.405       .  A
C28          C33   1.397       .  A
C28         C501   1.486       .  S
C29          C30   1.419       .  A
C29          H34   1.079       .  S
C30          C31   1.418       .  A
C30         C112   1.514       .  S
C31          C32   1.405       .  A
C31          H35   1.079       .  S
C32          C33   1.398       .  A
C32         C529   1.487       .  S
C33          H36   1.084       .  S
O37          C53   1.276       .  A
O37         Zn43   2.028       .  S
C38         C445   1.476       .  S
C38          O54   1.274       .  A
C38          O51   1.274       .  A
O39          C52   1.275   1_554  A
O39         Cd46   2.070       .  S
O40          C58   1.278       .  A
O40         Cd49   2.082   1_455  S
O41          C55   1.274   1_554  A
O41         Cd45   2.067   1_545  S
O42          C53   1.275   1_554  A
O42         Cd45   2.069       .  S
Zn43         O54   2.019       .  S
Zn43         O56   2.030       .  S
Zn43         O48   1.953       .  S
O44          C55   1.274       .  A
O44         Cd49   2.073   1_545  S
Cd45         O47   2.072       .  S
Cd45         O48   2.001   1_554  S
Cd46         O50   2.077       .  S
Cd46         O59   2.078   1_655  S
Cd46         O48   2.001   1_554  S
O47          C57   1.274       .  A
O48         Cd49   2.004       .  S
Cd49         O51   2.067       .  S
O50          C57   1.275       .  A
C52         C430   1.482       .  S
C52          O56   1.276       .  A
C53         C598   1.486       .  S
C55         C669   1.474       .  S
C57         C473   1.479       .  S
C58         C389   1.497       .  S
C58          O59   1.276   1_556  A
O60          C76   1.277       .  A
O60         Zn66   2.035       .  S
C61         C458   1.478       .  S
C61          O77   1.275       .  A
C61          O74   1.275       .  A
O62          C75   1.273       .  A
O62         Cd69   2.063       .  S
O63          C81   1.276       .  A
O63         Cd72   2.071   1_545  S
O64          C78   1.275       .  A
O64         Cd68   2.077   1_455  S
O65          C76   1.275       .  A
O65         Cd68   2.059       .  S
Zn66         O77   2.027       .  S
Zn66         O79   2.023       .  S
Zn66         O71   1.955       .  S
O67          C78   1.275       .  A
O67         Cd72   2.073   1_455  S
Cd68         O70   2.085       .  S
Cd68         O71   2.000       .  S
Cd69         O73   2.062       .  S
Cd69         O82   2.067   1_565  S
Cd69         O71   1.998       .  S
O70          C80   1.276       .  A
O71         Cd72   1.999       .  S
Cd72         O74   2.069       .  S
O73          C80   1.273       .  A
C75         C542   1.475       .  S
C75          O79   1.274       .  A
C76         C361   1.486       .  S
C78         C333   1.487       .  S
C80         C486   1.486       .  S
C81         C626   1.485       .  S
C81          O82   1.275       .  A
C83          C84   1.408       .  A
C83          C88   1.402       .  A
C83         C417   1.495       .  S
C84          C85   1.415       .  A
C84          H89   1.081       .  S
C85          C86   1.413       .  A
C86          C87   1.405   1_655  A
C86          H90   1.082       .  S
C87          C88   1.399   1_455  A
C87         C305   1.487       .  S
C88          H91   1.083   1_655  S
C92          C93   1.408       .  A
C92          C97   1.403   1_655  A
C92         C374   1.492       .  S
C93          C94   1.417       .  A
C93          H98   1.080       .  S
C94          C95   1.414       .  A
C95          C96   1.403   1_655  A
C95          H99   1.080       .  S
C96          C97   1.397       .  A
C96         C277   1.484       .  S
C97         H100   1.084       .  S
C101        C102   1.401       .  A
C101        C106   1.399   1_565  A
C101        C402   1.483       .  S
C102        C103   1.413       .  A
C102        H107   1.080       .  S
C103        C104   1.416       .  A
C104        C105   1.409   1_565  A
C104        H108   1.081       .  S
C105        C106   1.404       .  A
C105        C249   1.495       .  S
C106        H109   1.083       .  S
C110        C111   1.405       .  A
C110        C115   1.396       .  A
C110        C346   1.485       .  S
C111        C112   1.419       .  A
C111        H116   1.079       .  S
C112        C113   1.420       .  A
C113        C114   1.406   1_565  A
C113        H117   1.079       .  S
C114        C115   1.395   1_545  A
C114        C221   1.488       .  S
C115        H118   1.084   1_565  S
O119        C135   1.277       .  A
O119       Zn125   2.033       .  S
C120        C262   1.483       .  S
C120        O136   1.277       .  A
C120        O133   1.275       .  A
O121        C134   1.276       .  A
O121       Cd128   2.074       .  S
O122        C140   1.274       .  A
O122       Cd131   2.060   1_554  S
O123        C137   1.275       .  A
O123       Cd127   2.068       .  S
O124        C135   1.273       .  A
O124       Cd127   2.061       .  S
Zn125       O136   2.039       .  S
Zn125       O138   2.038       .  S
Zn125       O130   1.954       .  S
O126        C137   1.275       .  A
O126       Cd131   2.077       .  S
Cd127       O129   2.065       .  S
Cd127       O130   1.997       .  S
Cd128       O132   2.079       .  S
Cd128       O141   2.080   1_556  S
Cd128       O130   2.006       .  S
O129        C139   1.274       .  A
O130       Cd131   1.998       .  S
Cd131       O133   2.068       .  S
O132        C139   1.277       .  A
C134        C318   1.488       .  S
C134        O138   1.277       .  A
C135        C165   1.492       .  S
C137        C710   1.487       .  S
C139        C570   1.490       .  S
C140        C193   1.485       .  S
C140        O141   1.275       .  A
O142        C158   1.276       .  A
O142       Zn148   2.033       .  S
C143        C206   1.493       .  S
C143        O159   1.275       .  A
C143        O156   1.276       .  A
O144        C157   1.272       .  A
O144       Cd151   2.056       .  S
O145        C163   1.277       .  A
O145       Cd154   2.082       .  S
O146        C160   1.276       .  A
O146       Cd150   2.078       .  S
O147        C158   1.275       .  A
O147       Cd150   2.071       .  S
Zn148       O159   2.021       .  S
Zn148       O161   2.042       .  S
Zn148       O153   1.954       .  S
O149        C160   1.276       .  A
O149       Cd154   2.086       .  S
Cd150       O152   2.074       .  S
Cd150       O153   2.001       .  S
Cd151       O155   2.061       .  S
Cd151       O164   2.072       .  S
Cd151       O153   1.996       .  S
O152        C162   1.277       .  A
O153       Cd154   2.004       .  S
Cd154       O156   2.070       .  S
O155        C162   1.274       .  A
C157        C234   1.482       .  S
C157        O161   1.276       .  A
C158        C290   1.493       .  S
C160        C514   1.491       .  S
C162        C178   1.492       .  S
C163        C654   1.487       .  S
C163        O164   1.274       .  A
C165        C166   1.420       .  A
C165        C170   1.409       .  A
C166        C167   1.406       .  A
C166        N171   1.438       .  S
C167        C168   1.399       .  A
C167        H172   1.084       .  S
C168        C169   1.406       .  A
C168        C173   1.479       .  S
C169        C170   1.405       .  A
C169        N174   1.438       .  S
C170        H175   1.083       .  S
N171        H191   1.046       .  S
N171        H192   1.045       .  S
C173        C176   1.399       .  A
C173        C180   1.406       .  A
N174        H189   1.045       .  S
N174        H190   1.046       .  S
C176        C177   1.405       .  A
C176        H181   1.084       .  S
C177        C178   1.421       .  A
C177        N182   1.438       .  S
C178        C179   1.409       .  A
C179        C180   1.405       .  A
C179        H183   1.083       .  S
C180        N184   1.438       .  S
N182        H185   1.046       .  S
N182        H186   1.046       .  S
N184        H187   1.046       .  S
N184        H188   1.045       .  S
C193        C194   1.416       .  A
C193        C198   1.407       .  A
C194        C195   1.407       .  A
C194        N199   1.438       .  S
C195        C196   1.402       .  A
C195        H200   1.084       .  S
C196        C197   1.407       .  A
C196        C201   1.480       .  S
C197        C198   1.403       .  A
C197        N202   1.438       .  S
C198        H203   1.084       .  S
N199        H219   1.046       .  S
N199        H220   1.046       .  S
C201        C204   1.399       .  A
C201        C208   1.406       .  A
N202        H217   1.046       .  S
N202        H218   1.046       .  S
C204        C205   1.405       .  A
C204        H209   1.084       .  S
C205        C206   1.420       .  A
C205        N210   1.438       .  S
C206        C207   1.410       .  A
C207        C208   1.405       .  A
C207        H211   1.083       .  S
C208        N212   1.438       .  S
N210        H213   1.046       .  S
N210        H214   1.046       .  S
N212        H215   1.046       .  S
N212        H216   1.046       .  S
C221        C222   1.415       .  A
C221        C226   1.404       .  A
C222        C223   1.405       .  A
C222        N227   1.438       .  S
C223        C224   1.402       .  A
C223        H228   1.084       .  S
C224        C225   1.412       .  A
C224        C229   1.486       .  S
C225        C226   1.407       .  A
C225        N230   1.437       .  S
C226        H231   1.083       .  S
N227        H247   1.045       .  S
N227        H248   1.046       .  S
C229        C232   1.401       .  A
C229        C236   1.412       .  A
N230        H245   1.045       .  S
N230        H246   1.046       .  S
C232        C233   1.405       .  A
C232        H237   1.084       .  S
C233        C234   1.415       .  A
C233        N238   1.438       .  S
C234        C235   1.404       .  A
C235        C236   1.408       .  A
C235        H239   1.084       .  S
C236        N240   1.438       .  S
N238        H241   1.046       .  S
N238        H242   1.045       .  S
N240        H243   1.046       .  S
N240        H244   1.046       .  S
C249        C250   1.415       .  A
C249        C254   1.406       .  A
C250        C251   1.407       .  A
C250        N255   1.438       .  S
C251        C252   1.404       .  A
C251        H256   1.083       .  S
C252        C253   1.413       .  A
C252        C257   1.493       .  S
C253        C254   1.408       .  A
C253        N258   1.438       .  S
C254        H259   1.083       .  S
N255        H275   1.045       .  S
N255        H276   1.046       .  S
C257        C260   1.405       .  A
C257        C264   1.413       .  A
N258        H273   1.046   1_556  S
N258        H274   1.045       .  S
C260        C261   1.406       .  A
C260        H265   1.083   1_556  S
C261        C262   1.413       .  A
C261        N266   1.438   1_556  S
C262        C263   1.404       .  A
C263        C264   1.408       .  A
C263        H267   1.084       .  S
C264        N268   1.437       .  S
N266        H269   1.046       .  S
N266        H270   1.046       .  S
N268        H271   1.046       .  S
N268        H272   1.046       .  S
C277        C278   1.412       .  A
C277        C282   1.404       .  A
C278        C279   1.406       .  A
C278        N283   1.438       .  S
C279        C280   1.402       .  A
C279        H284   1.084       .  S
C280        C281   1.416       .  A
C280        C285   1.482       .  S
C281        C282   1.403       .  A
C281        N286   1.438       .  S
C282        H287   1.084       .  S
N283        H303   1.045       .  S
N283        H304   1.046       .  S
C285        C288   1.400       .  A
C285        C292   1.407       .  A
N286        H301   1.046       .  S
N286        H302   1.042       .  S
C288        C289   1.409       .  A
C288        H293   1.084       .  S
C289        C290   1.419       .  A
C289        N294   1.438       .  S
C290        C291   1.409       .  A
C291        C292   1.406       .  A
C291        H295   1.083       .  S
C292        N296   1.438       .  S
N294        H297   1.045       .  S
N294        H298   1.046       .  S
N296        H299   1.046       .  S
N296        H300   1.045       .  S
C305        C306   1.413       .  A
C305        C310   1.404       .  A
C306        C307   1.407       .  A
C306        N311   1.438       .  S
C307        C308   1.403       .  A
C307        H312   1.084       .  S
C308        C309   1.411       .  A
C308        C313   1.488       .  S
C309        C310   1.406       .  A
C309        N314   1.437   1_556  S
C310        H315   1.084   1_556  S
N311        H331   1.045       .  S
N311        H332   1.046       .  S
C313        C316   1.403       .  A
C313        C320   1.410       .  A
N314        H329   1.046       .  S
N314        H330   1.045   1_554  S
C316        C317   1.406       .  A
C316        H321   1.084   1_556  S
C317        C318   1.415       .  A
C317        N322   1.438   1_556  S
C318        C319   1.407       .  A
C319        C320   1.409       .  A
C319        H323   1.083       .  S
C320        N324   1.437       .  S
N322        H325   1.045       .  S
N322        H326   1.046       .  S
N324        H327   1.045       .  S
N324        H328   1.046       .  S
C333        C334   1.416       .  A
C333        C338   1.406       .  A
C334        C335   1.408       .  A
C334        N339   1.438       .  S
C335        C336   1.400       .  A
C335        H340   1.084       .  S
C336        C337   1.409       .  A
C336        C341   1.481       .  S
C337        C338   1.405       .  A
C337        N342   1.438   1_565  S
C338        H343   1.084       .  S
N339        H359   1.046       .  S
N339        H360   1.046       .  S
C341        C344   1.399       .  A
C341        C348   1.410       .  A
N342        H357   1.046       .  S
N342        H358   1.046   1_545  S
C344        C345   1.401       .  A
C344        H349   1.084       .  S
C345        C346   1.413       .  A
C345        N350   1.438       .  S
C346        C347   1.405       .  A
C347        C348   1.410       .  A
C347        H351   1.083       .  S
C348        N352   1.437       .  S
N350        H353   1.046       .  S
N350        H354   1.046       .  S
N352        H355   1.046       .  S
N352        H356   1.046       .  S
C361        C362   1.416       .  A
C361        C366   1.407       .  A
C362        C363   1.408       .  A
C362        N367   1.438       .  S
C363        C364   1.401       .  A
C363        H368   1.084       .  S
C364        C365   1.407       .  A
C364        C369   1.481       .  S
C365        C366   1.404       .  A
C365        N370   1.438       .  S
C366        H371   1.084       .  S
N367        H387   1.046       .  S
N367        H388   1.046       .  S
C369        C372   1.402       .  A
C369        C376   1.407       .  A
N370        H385   1.046       .  S
N370        H386   1.046       .  S
C372        C373   1.409       .  A
C372        H377   1.084       .  S
C373        C374   1.416       .  A
C373        N378   1.438       .  S
C374        C375   1.407       .  A
C375        C376   1.403       .  A
C375        H379   1.083       .  S
C376        N380   1.438       .  S
N378        H381   1.045       .  S
N378        H382   1.046       .  S
N380        H383   1.045   1_655  S
N380        H384   1.046   1_655  S
C389        C390   1.421   1_556  A
C389        C394   1.409       .  A
C390        C391   1.409       .  A
C390        N395   1.438       .  S
C391        C392   1.399   1_554  A
C391        H396   1.084       .  S
C392        C393   1.407       .  A
C392        C397   1.483       .  S
C393        C394   1.406       .  A
C393        N398   1.438       .  S
C394        H399   1.083       .  S
N395        H415   1.046       .  S
N395        H416   1.046       .  S
C397        C400   1.402       .  A
C397        C404   1.418   1_556  A
N398        H413   1.046   1_565  S
N398        H414   1.046   1_565  S
C400        C401   1.399       .  A
C400        H405   1.084       .  S
C401        C402   1.414       .  A
C401        N406   1.433       .  S
C402        C403   1.403   1_556  A
C403        C404   1.405       .  A
C403        H407   1.084       .  S
C404        N408   1.438       .  S
N406        H409   1.044       .  S
N406        H410   1.046       .  S
N408        H411   1.046   1_565  S
N408        H412   1.043       .  S
C417        C418   1.415       .  A
C417        C422   1.407   1_556  A
C418        C419   1.408       .  A
C418        N423   1.438       .  S
C419        C420   1.405       .  A
C419        H424   1.083       .  S
C420        C421   1.412   1_556  A
C420        C425   1.494       .  S
C421        C422   1.405       .  A
C421        N426   1.438   1_655  S
C422        H427   1.083   1_655  S
N423        H443   1.045       .  S
N423        H444   1.046       .  S
C425        C428   1.405   1_556  A
C425        C432   1.414       .  A
N426        H441   1.046       .  S
N426        H442   1.045       .  S
C428        C429   1.408       .  A
C428        H433   1.083       .  S
C429        C430   1.412   1_554  A
C429        N434   1.438       .  S
C430        C431   1.403       .  A
C431        C432   1.406       .  A
C431        H435   1.084       .  S
C432        N436   1.438       .  S
N434        H437   1.046       .  S
N434        H438   1.046       .  S
N436        H439   1.046       .  S
N436        H440   1.046       .  S
C445        C446   1.412       .  A
C445        C450   1.404       .  A
C446        C447   1.406       .  A
C446        N451   1.438       .  S
C447        C448   1.401       .  A
C447        H452   1.084       .  S
C448        C449   1.408       .  A
C448        C453   1.477       .  S
C449        C450   1.404       .  A
C449        N454   1.438       .  S
C450        H455   1.084       .  S
N451        H471   1.046       .  S
N451        H472   1.046       .  S
C453        C456   1.401       .  A
C453        C460   1.408       .  A
N454        H469   1.046   1_565  S
N454        H470   1.045   1_565  S
C456        C457   1.408       .  A
C456        H461   1.084       .  S
C457        C458   1.413       .  A
C457        N462   1.438       .  S
C458        C459   1.403       .  A
C459        C460   1.403       .  A
C459        H463   1.084       .  S
C460        N464   1.438       .  S
N462        H465   1.046       .  S
N462        H466   1.046       .  S
N464        H467   1.046   1_655  S
N464        H468   1.045       .  S
C473        C474   1.412       .  A
C473        C478   1.404       .  A
C474        C475   1.407       .  A
C474        N479   1.438       .  S
C475        C476   1.402       .  A
C475        H480   1.084       .  S
C476        C477   1.410       .  A
C476        C481   1.481       .  S
C477        C478   1.407       .  A
C477        N482   1.438   1_565  S
C478        H483   1.084       .  S
N479        H499   1.046       .  S
N479        H500   1.046       .  S
C481        C484   1.401       .  A
C481        C488   1.409       .  A
N482        H497   1.046       .  S
N482        H498   1.043       .  S
C484        C485   1.407       .  A
C484        H489   1.084       .  S
C485        C486   1.414       .  A
C485        N490   1.437       .  S
C486        C487   1.407       .  A
C487        C488   1.406       .  A
C487        H491   1.084       .  S
C488        N492   1.439       .  S
N490        H493   1.046   1_655  S
N490        H494   1.046   1_655  S
N492        H495   1.046       .  S
N492        H496   1.043       .  S
C501        C502   1.411       .  A
C501        C506   1.404       .  A
C502        C503   1.411       .  A
C502        N507   1.437       .  S
C503        C504   1.404       .  A
C503        H508   1.083       .  S
C504        C505   1.408       .  A
C504        C509   1.485       .  S
C505        C506   1.404       .  A
C505        N510   1.438       .  S
C506        H511   1.084       .  S
N507        H527   1.045       .  S
N507        H528   1.046       .  S
C509        C512   1.402       .  A
C509        C516   1.407       .  A
N510        H525   1.046       .  S
N510        H526   1.046       .  S
C512        C513   1.408       .  A
C512        H517   1.084       .  S
C513        C514   1.416       .  A
C513        N518   1.438       .  S
C514        C515   1.409       .  A
C515        C516   1.408       .  A
C515        H519   1.084       .  S
C516        N520   1.437       .  S
N518        H521   1.046       .  S
N518        H522   1.045       .  S
N520        H523   1.046       .  S
N520        H524   1.046       .  S
C529        C530   1.410       .  A
C529        C534   1.405       .  A
C530        C531   1.401       .  A
C530        N535   1.433       .  S
C531        C532   1.403       .  A
C531        H536   1.084       .  S
C532        C533   1.414       .  A
C532        C537   1.489       .  S
C533        C534   1.409       .  A
C533        N538   1.438       .  S
C534        H539   1.084       .  S
N535        H555   1.046       .  S
N535        H556   1.045       .  S
C537        C540   1.405       .  A
C537        C544   1.413       .  A
N538        H553   1.046       .  S
N538        H554   1.046       .  S
C540        C541   1.405       .  A
C540        H545   1.083       .  S
C541        C542   1.410       .  A
C541        N546   1.438       .  S
C542        C543   1.402       .  A
C543        C544   1.406       .  A
C543        H547   1.084       .  S
C544        N548   1.438       .  S
N546        H549   1.046       .  S
N546        H550   1.046       .  S
N548        H551   1.046       .  S
N548        H552   1.046       .  S
C557        C558   1.414       .  A
C557        C562   1.407       .  A
C558        C559   1.410       .  A
C558        N563   1.437       .  S
C559        C560   1.403       .  A
C559        H564   1.084       .  S
C560        C561   1.406       .  A
C560        C565   1.481       .  S
C561        C562   1.403       .  A
C561        N566   1.438   1_556  S
C562        H567   1.084   1_556  S
N563        H583   1.045       .  S
N563        H584   1.046       .  S
C565        C568   1.400       .  A
C565        C572   1.406       .  A
N566        H581   1.045       .  S
N566        H582   1.046       .  S
C568        C569   1.406       .  A
C568        H573   1.084       .  S
C569        C570   1.419       .  A
C569        N574   1.438       .  S
C570        C571   1.408       .  A
C571        C572   1.407       .  A
C571        H575   1.083       .  S
C572        N576   1.437       .  S
N574        H577   1.046       .  S
N574        H578   1.046       .  S
N576        H579   1.046   1_556  S
N576        H580   1.045   1_556  S
C585        C586   1.413       .  A
C585        C590   1.405   1_556  A
C586        C587   1.409       .  A
C586        N591   1.438       .  S
C587        C588   1.404       .  A
C587        H592   1.084       .  S
C588        C589   1.409   1_556  A
C588        C593   1.484       .  S
C589        C590   1.402       .  A
C589        N594   1.438       .  S
C590        H595   1.084       .  S
N591        H611   1.046       .  S
N591        H612   1.045       .  S
C593        C596   1.401   1_556  A
C593        C600   1.410       .  A
N594        H609   1.046       .  S
N594        H610   1.046       .  S
C596        C597   1.405       .  A
C596        H601   1.084       .  S
C597        C598   1.415   1_554  A
C597        N602   1.438       .  S
C598        C599   1.407       .  A
C599        C600   1.407       .  A
C599        H603   1.084       .  S
C600        N604   1.438       .  S
N602        H605   1.045       .  S
N602        H606   1.046       .  S
N604        H607   1.046       .  S
N604        H608   1.046       .  S
C613        C614   1.413       .  A
C613        C618   1.404       .  A
C614        C615   1.402       .  A
C614        N619   1.438       .  S
C615        C616   1.401       .  A
C615        H620   1.084       .  S
C616        C617   1.411       .  A
C616        C621   1.483       .  S
C617        C618   1.407       .  A
C617        N622   1.437       .  S
C618        H623   1.084       .  S
N619        H639   1.045       .  S
N619        H640   1.046       .  S
C621        C624   1.402       .  A
C621        C628   1.409       .  A
N622        H637   1.046       .  S
N622        H638   1.045       .  S
C624        C625   1.406       .  A
C624        H629   1.084       .  S
C625        C626   1.417       .  A
C625        N630   1.438       .  S
C626        C627   1.406       .  A
C627        C628   1.404       .  A
C627        H631   1.083       .  S
C628        N632   1.438       .  S
N630        H633   1.046       .  S
N630        H634   1.046       .  S
N632        H635   1.045       .  S
N632        H636   1.046       .  S
C641        C642   1.408       .  A
C641        C646   1.403       .  A
C642        C643   1.408       .  A
C642        N647   1.437       .  S
C643        C644   1.407       .  A
C643        H648   1.083       .  S
C644        C645   1.411       .  A
C644        C649   1.488       .  S
C645        C646   1.403       .  A
C645        N650   1.438       .  S
C646        H651   1.084       .  S
N647        H667   1.046       .  S
N647        H668   1.046       .  S
C649        C652   1.404       .  A
C649        C656   1.409       .  A
N650        H665   1.046       .  S
N650        H666   1.045       .  S
C652        C653   1.408       .  A
C652        H657   1.084       .  S
C653        C654   1.416       .  A
C653        N658   1.438       .  S
C654        C655   1.406       .  A
C655        C656   1.405       .  A
C655        H659   1.083       .  S
C656        N660   1.438       .  S
N658        H661   1.046       .  S
N658        H662   1.045       .  S
N660        H663   1.046       .  S
N660        H664   1.046       .  S
C669        C670   1.410   1_556  A
C669        C674   1.402       .  A
C670        C671   1.406       .  A
C670        N675   1.438       .  S
C671        C672   1.404   1_554  A
C671        H676   1.084       .  S
C672        C673   1.412       .  A
C672        C677   1.487       .  S
C673        C674   1.406       .  A
C673        N678   1.438       .  S
C674        H679   1.084       .  S
N675        H695   1.046       .  S
N675        H696   1.045       .  S
C677        C680   1.405       .  A
C677        C684   1.419   1_556  A
N678        H693   1.046       .  S
N678        H694   1.046       .  S
C680        C681   1.407       .  A
C680        H685   1.084       .  S
C681        C682   1.412       .  A
C681        N686   1.438       .  S
C682        C683   1.405   1_556  A
C683        C684   1.401       .  A
C683        H687   1.084       .  S
C684        N688   1.440       .  S
N686        H689   1.046       .  S
N686        H690   1.046       .  S
N688        H691   1.045       .  S
N688        H692   1.042       .  S
C697        C698   1.413       .  A
C697        C702   1.405       .  A
C698        C699   1.404       .  A
C698        N703   1.438       .  S
C699        C700   1.402       .  A
C699        H704   1.084       .  S
C700        C701   1.410       .  A
C700        C705   1.485       .  S
C701        C702   1.407       .  A
C701        N706   1.437   1_556  S
C702        H707   1.084   1_556  S
N703        H723   1.045       .  S
N703        H724   1.046       .  S
C705        C708   1.403       .  A
C705        C712   1.409       .  A
N706        H721   1.046       .  S
N706        H722   1.045   1_554  S
C708        C709   1.407       .  A
C708        H713   1.084   1_556  S
C709        C710   1.416       .  A
C709        N714   1.438   1_556  S
C710        C711   1.406       .  A
C711        C712   1.405       .  A
C711        H715   1.083       .  S
C712        N716   1.438       .  S
N714        H717   1.046       .  S
N714        H718   1.046       .  S
N716        H719   1.045       .  S
N716        H720   1.046       .  S
