geometry optimzed in LAMMPS
_audit_creation_date              2020-11-30 
_audit_creation_method            'lammps2cif' 
_symmetry_space_group_name_H-M    'P1' 
_symmetry_Int_Tables_number       1 
_symmetry_cell_setting            triclinic 
loop_ 
_symmetry_equiv_pos_as_xyz 
  x,y,z 
_cell_length_a                    88.27717157 
_cell_length_b                    88.241025028029 
_cell_length_c                    36.80255043406399 
_cell_angle_alpha                 90.11628858930999 
_cell_angle_beta                  89.71832114928588 
_cell_angle_gamma                 123.70438112053792 
loop_ 
_atom_site_label 
_atom_site_type_symbol 
_atom_site_fract_x 
_atom_site_fract_y 
_atom_site_fract_z 
_atom_site_charge 
C1          C  0.17182754  0.51956271  0.75046278     0.86900
C2          C  0.16405686  0.50823666  0.78552829    -0.53300
C3          C  0.16252480  0.49198695  0.78466042     0.09900
C4          C  0.16900580  0.48841256  0.74881493     0.20800
C5          C  0.19024726  0.52132273  0.74526436    -0.54000
C6          C  0.18867017  0.50496603  0.74412975     0.10000
C7          C  0.16005307  0.50686442  0.71930801    -0.53600
C8          C  0.15831453  0.49055699  0.71873989     0.10500
H9          H  0.15987655  0.51261778  0.80891731     0.15100
H10         H  0.16744016  0.47504996  0.74831574     0.00800
H11         H  0.20349319  0.53394222  0.74299413     0.15400
H12         H  0.15374804  0.51058459  0.69906138     0.15100
C13         C  0.33320931  0.51551015  0.73204939     0.86900
C14         C  0.31659085  0.51680094  0.73286191    -0.53300
C15         C  0.30022911  0.50041655  0.73365767     0.09900
C16         C  0.30188489  0.48396834  0.73463187     0.20800
C17         C  0.33094745  0.50368202  0.76498466    -0.54000
C18         C  0.31447934  0.48749916  0.76686445     0.10000
C19         C  0.32962780  0.50291599  0.69919583    -0.53600
C20         C  0.31335389  0.48639338  0.70084499     0.10500
H21         H  0.31771259  0.52970138  0.73253157     0.15100
H22         H  0.28859094  0.47059924  0.73590324     0.00800
H23         H  0.34131459  0.50794116  0.78562673     0.15400
H24         H  0.33882796  0.50610044  0.67663618     0.15100
C25         C  0.16495459  0.63180312  0.73498305     0.86900
C26         C  0.15433533  0.63274568  0.76713563    -0.53300
C27         C  0.15351506  0.64771124  0.76707712     0.09900
C28         C  0.16303691  0.66040656  0.73426178     0.20800
C29         C  0.15491338  0.63288927  0.70151554    -0.54000
C30         C  0.15417733  0.64799305  0.70095879     0.10000
C31         C  0.18351582  0.65017480  0.73477731    -0.53600
C32         C  0.18262989  0.66513721  0.73407444     0.10500
H33         H  0.14808442  0.62248320  0.78839137     0.15100
H34         H  0.16223212  0.67253119  0.73420321     0.00800
H35         H  0.14818804  0.62263711  0.68059570     0.15400
H36         H  0.19636606  0.65121317  0.73515388     0.15100
C37         C  0.33613921  0.80673847  0.74730305     0.86900
C38         C  0.33518146  0.81805373  0.71661875    -0.53300
C39         C  0.31964096  0.81793364  0.71669819     0.09900
C40         C  0.30633712  0.80659796  0.74763776     0.20800
C41         C  0.33325341  0.81480863  0.78215904    -0.54000
C42         C  0.31767675  0.81458532  0.78237844     0.10000
C43         C  0.31839655  0.78766176  0.74424281    -0.53600
C44         C  0.30282177  0.78750676  0.74368464     0.10500
H45         H  0.34581434  0.82537460  0.69629725     0.15100
H46         H  0.29380972  0.80665061  0.74812472     0.00800
H47         H  0.34257631  0.82091790  0.80467294     0.15400
H48         H  0.31822860  0.77528238  0.74236764     0.15100
C49         C  0.45334393  0.64100252  0.74002096     0.86900
C50         C  0.45230756  0.65795925  0.73999143    -0.53300
C51         C  0.46874453  0.67422773  0.74226612     0.09900
C52         C  0.48501758  0.67228539  0.74223685     0.20800
C53         C  0.46583653  0.64437215  0.70760435    -0.54000
C54         C  0.48235813  0.66052723  0.70882320     0.10000
C55         C  0.46470098  0.64371186  0.77412694    -0.53600
C56         C  0.48130782  0.65991586  0.77504594     0.10500
H57         H  0.44001685  0.65784466  0.73919749     0.15100
H58         H  0.49851218  0.68544793  0.74313682     0.00800
H59         H  0.46202003  0.63464421  0.68567160     0.15400
H60         H  0.46020402  0.63345192  0.79520786     0.15100
C61         C  0.45149812  0.80425500  0.73879336     0.86900
C62         C  0.46232773  0.81228089  0.70328913    -0.53300
C63         C  0.47845733  0.81367723  0.70233628     0.09900
C64         C  0.48237997  0.80653386  0.73660917     0.20800
C65         C  0.44956233  0.78564200  0.74223220    -0.54000
C66         C  0.46578309  0.78695389  0.74140772     0.10000
C67         C  0.46485645  0.81582229  0.76946501    -0.53600
C68         C  0.48092308  0.81692801  0.76852891     0.10500
H69         H  0.45776719  0.81682533  0.68098534     0.15100
H70         H  0.49554232  0.80770599  0.73484514     0.00800
H71         H  0.43693259  0.77246308  0.74510355     0.15400
H72         H  0.46178095  0.82249671  0.79025967     0.15100
C73         C  0.50822608  0.16754606  0.23220674     0.86900
C74         C  0.49645479  0.15800677  0.19841285    -0.53300
C75         C  0.48013860  0.15633183  0.19849327     0.09900
C76         C  0.47725664  0.16501907  0.23176118     0.20800
C77         C  0.51018140  0.18612804  0.23251391    -0.54000
C78         C  0.49395751  0.18468563  0.23172743     0.10000
C79         C  0.49594492  0.15759189  0.26533131    -0.53600
C80         C  0.47974900  0.15614248  0.26497286     0.10500
H81         H  0.50110237  0.15367250  0.17580976     0.15100
H82         H  0.46409449  0.16392743  0.23172164     0.00800
H83         H  0.52278932  0.19942583  0.23285843     0.15400
H84         H  0.49990374  0.15241604  0.28754269     0.15100
C85         C  0.62288539  0.16496681  0.23828148     0.86900
C86         C  0.62436700  0.15455127  0.20636792    -0.53300
C87         C  0.64001198  0.15493818  0.20622166     0.09900
C88         C  0.65263940  0.16511165  0.23847984     0.20800
C89         C  0.62500688  0.15574124  0.27205346    -0.54000
C90         C  0.64061897  0.15596584  0.27216742     0.10000
C91         C  0.64059032  0.18405350  0.23725082    -0.53600
C92         C  0.65613528  0.18422195  0.23790866     0.10500
H93         H  0.61409712  0.14772121  0.18539196     0.15100
H94         H  0.66512123  0.16496607  0.23779940     0.00800
H95         H  0.61508818  0.14884781  0.29358380     0.15400
H96         H  0.64076926  0.19646200  0.23646305     0.15100
C97         C  0.79300969  0.33927241  0.24898181     0.86900
C98         C  0.80380068  0.33898002  0.28114677    -0.53300
C99         C  0.80577647  0.32476708  0.28086535     0.09900
C100        C  0.79622890  0.31148175  0.24879080     0.20800
C101        C  0.80225424  0.33787521  0.21472067    -0.54000
C102        C  0.80385867  0.32333393  0.21439322     0.10000
C103        C  0.77469693  0.32035765  0.25099736    -0.53600
C104        C  0.77630001  0.30578270  0.25060590     0.10500
H105        H  0.80950388  0.34925266  0.30238675     0.15100
H106        H  0.79779799  0.29984701  0.24844649     0.00800
H107        H  0.80736234  0.34779125  0.19282736     0.15400
H108        H  0.76133105  0.31800933  0.25149627     0.15100
C109        C  0.79246623  0.45496449  0.25156858     0.86900
C110        C  0.80075958  0.46746233  0.28533410    -0.53300
C111        C  0.80143360  0.48325849  0.28271762     0.09900
C112        C  0.79390246  0.48531689  0.24697135     0.20800
C113        C  0.77382061  0.45228900  0.24729745    -0.54000
C114        C  0.77458252  0.46810476  0.24455992     0.10000
C115        C  0.80429666  0.46747888  0.21996485    -0.53600
C116        C  0.80481772  0.48317358  0.21711974     0.10500
H117        H  0.80587287  0.46469333  0.30930330     0.15100
H118        H  0.79443011  0.49816007  0.24538940     0.00800
H119        H  0.76107142  0.43897092  0.24674534     0.15400
H120        H  0.81126147  0.46396274  0.20076735     0.15100
C121        C  0.62813129  0.45513649  0.23678877     0.86900
C122        C  0.64385199  0.45252753  0.23946332    -0.53300
C123        C  0.66073875  0.46823347  0.23831043     0.09900
C124        C  0.66053095  0.48552692  0.23561860     0.20800
C125        C  0.63134178  0.46847190  0.26734398    -0.54000
C126        C  0.64831662  0.48411999  0.26713541     0.10000
C127        C  0.63243726  0.46676776  0.20190733    -0.53600
C128        C  0.64937973  0.48258944  0.20129866     0.10500
H129        H  0.64165921  0.43923925  0.24287154     0.15100
H130        H  0.67421762  0.49848337  0.23554296     0.00800
H131        H  0.62115646  0.46568254  0.28772752     0.15400
H132        H  0.62311986  0.46376675  0.17992323     0.15100
C133        C  0.50750146  0.33062064  0.23431932     0.86900
C134        C  0.49619123  0.32960797  0.20177727    -0.53300
C135        C  0.47948202  0.31377899  0.19942937     0.09900
C136        C  0.47554013  0.29984110  0.22958297     0.20800
C137        C  0.49526237  0.32603730  0.26792406    -0.54000
C138        C  0.47862708  0.30999293  0.26560904     0.10000
C139        C  0.50819592  0.31355698  0.22992903    -0.53600
C140        C  0.49152848  0.29743135  0.22772237     0.10500
H141        H  0.50093245  0.34065516  0.18240902     0.15100
H142        H  0.46189296  0.28690035  0.22799848     0.00800
H143        H  0.49941630  0.33485291  0.29156557     0.15400
H144        H  0.52037434  0.31347442  0.23045966     0.15100
O145        O  0.37584437  0.09692442  0.89315869    -0.57400
C146        C  0.38420117  0.10530316  0.00311928     0.75300
O147        O  0.33600886  0.10095196  0.96442219    -0.58500
C148        C  0.36280356  0.09027125  0.87079678     0.75200
C149        C  0.33530996  0.05277484  0.96285430     0.77600
Cd150      Cd  0.35672669  0.09117958  0.94740044     1.37500
O151        O  0.38828485  0.10634675  0.96974807    -0.57400
O152        O  0.35191894  0.06140321  0.95379685    -0.56200
C153        C  0.34651602  0.11694240  0.95198874     0.77600
O154        O  0.32821229  0.06191298  0.96479316    -0.58500
O155        O  0.36746603  0.09767143  0.01013471    -0.57000
O156        O  0.34717579  0.08430427  0.88394963    -0.57000
O157        O  0.36102964  0.12050193  0.93688391    -0.56200
O158        O  0.28000625  0.87906508  0.08609589    -0.57400
C159        C  0.28364463  0.87254270  0.97490763     0.75300
O160        O  0.23361372  0.86645966  0.01425101    -0.58500
C161        C  0.27095717  0.88236735  0.10771209     0.75200
C162        C  0.27887790  0.91932666  0.01161139     0.77600
Cd163      Cd  0.26649450  0.88215611  0.02946619     1.37500
O164        O  0.28964268  0.87651512  0.00709699    -0.57400
O165        O  0.28956888  0.91494540  0.02223160    -0.56200
C166        C  0.22959903  0.85076754  0.02313730     0.77600
O167        O  0.26229131  0.90638813  0.00911600    -0.58500
O168        O  0.27030580  0.87373373  0.96814845    -0.57000
O169        O  0.26050122  0.88607467  0.09290602    -0.57000
O170        O  0.24246600  0.84991577  0.03539938    -0.56200
O171        O  0.87555394  0.29686431  0.91008682    -0.57400
C172        C  0.86581734  0.29563787  0.01935349     0.75300
O173        O  0.86591047  0.25004635  0.97844961    -0.58500
C174        C  0.88001400  0.28912623  0.88744404     0.75200
C175        C  0.91637320  0.29561297  0.97874189     0.77600
Cd176      Cd  0.87904825  0.28236840  0.96414384     1.37500
O177        O  0.87109716  0.30340204  0.98871262    -0.57400
O178        O  0.91174935  0.30604830  0.96770410    -0.56200
C179        C  0.85086297  0.24425850  0.96299268     0.77600
O180        O  0.90361366  0.27927273  0.98499734    -0.58500
O181        O  0.86712938  0.28226086  0.02449906    -0.57000
O182        O  0.88416828  0.27872046  0.90076918    -0.57000
O183        O  0.84919163  0.25615948  0.94807050    -0.56200
O184        O  0.09576125  0.39077350  0.09425946    -0.57400
C185        C  0.10347528  0.39850081  0.98559172     0.75300
O186        O  0.09336863  0.34701815  0.02419846    -0.58500
C187        C  0.08657203  0.37799613  0.11684220     0.75200
C188        C  0.04934798  0.35068438  0.02131057     0.77600
Cd189      Cd  0.08713566  0.37047062  0.04053462     1.37500
O190        O  0.10180131  0.40189892  0.01826954    -0.57400
O191        O  0.05964105  0.36783658  0.01910171    -0.56200
C192        C  0.10983437  0.35655251  0.03416895     0.77600
O193        O  0.05648156  0.34247370  0.03252879    -0.58500
O194        O  0.09743997  0.38202166  0.97859323    -0.57000
O195        O  0.07797708  0.36200658  0.10417839    -0.57000
O196        O  0.11528660  0.37192603  0.04778863    -0.56200
O197        O  0.67404564  0.10065149  0.97779981    -0.57400
C198        C  0.68970082  0.09397943  0.87917181     0.75300
O199        O  0.72845889  0.10762577  0.96651231    -0.58500
C200        C  0.67946365  0.10364088  0.01036995     0.75200
C201        C  0.68361129  0.05594456  0.97067423     0.77600
Cd202      Cd  0.69548112  0.09301941  0.95581722     1.37500
O203        O  0.67835481  0.09252429  0.90240312    -0.57400
O204        O  0.67287292  0.06019055  0.95979306    -0.56200
C205        C  0.73220511  0.12364823  0.96296600     0.77600
O206        O  0.69997870  0.06899067  0.97532877    -0.58500
O207        O  0.70338042  0.09454375  0.89130208    -0.57000
O208        O  0.69168210  0.10082132  0.01780702    -0.57000
O209        O  0.71914303  0.12511372  0.95521788    -0.56200
O210        O  0.57525841  0.86994453  0.99120328    -0.57400
C211        C  0.59912345  0.88082606  0.09410056     0.75300
O212        O  0.62885390  0.87528701  0.00239285    -0.58500
C213        C  0.57962407  0.86973268  0.95843151     0.75200
C214        C  0.62634473  0.92183024  0.00726717     0.77600
Cd215      Cd  0.60608171  0.88298858  0.01651262     1.37500
O216        O  0.58625507  0.87464853  0.07139862    -0.57400
O217        O  0.60946745  0.91205533  0.01376689    -0.56200
C218        C  0.61773917  0.85845373  0.00904852     0.77600
O219        O  0.63418134  0.91346773  0.00330573    -0.58500
O220        O  0.61485775  0.88772318  0.08065993    -0.57000
O221        O  0.59620742  0.87589266  0.95245106    -0.57000
O222        O  0.60204291  0.85365704  0.01967748    -0.56200
O223        O  0.08261186  0.67319616  0.08706505    -0.57400
C224        C  0.09517480  0.67402602  0.97322447     0.75300
O225        O  0.05885619  0.69208500  0.01221272    -0.58500
C226        C  0.08650505  0.68631238  0.10798857     0.75200
C227        C  0.11374899  0.72672549  0.01807354     0.77600
Cd228      Cd  0.08442360  0.68939223  0.02984783     1.37500
O229        O  0.09531000  0.67035189  0.00645141    -0.57400
O230        O  0.11641257  0.71437824  0.02543998    -0.56200
C231        C  0.04623895  0.67575350  0.01939070     0.77600
O232        O  0.09729187  0.72192906  0.01686112    -0.58500
O233        O  0.08900384  0.68368996  0.96668026    -0.57000
O234        O  0.08976587  0.70061473  0.09261731    -0.57000
O235        O  0.05138737  0.66580544  0.03072248    -0.56200
O236        O  0.86152535  0.56786761  0.97493147    -0.57400
C237        C  0.87565014  0.59373855  0.87615992     0.75300
O238        O  0.86450756  0.61995239  0.97050610    -0.58500
C239        C  0.85959362  0.57121940  0.00747298     0.75200
C240        C  0.91312101  0.62086618  0.96992158     0.77600
Cd241      Cd  0.87468540  0.59944194  0.95292715     1.37500
O242        O  0.86632467  0.58041873  0.89760491    -0.57400
O243        O  0.90460436  0.60430555  0.96060781    -0.56200
C244        C  0.84919988  0.61040987  0.95490988     0.77600
O245        O  0.90389883  0.62788788  0.97130159    -0.58500
O246        O  0.88440511  0.60945981  0.89025752    -0.57000
O247        O  0.86471644  0.58741764  0.01453869    -0.57000
O248        O  0.84613722  0.59634848  0.93864685    -0.56200
O249        O  0.68676271  0.58407357  0.89530549    -0.57400
C250        C  0.68704192  0.57617504  0.00292939     0.75300
O251        O  0.73374321  0.62392135  0.96919043    -0.58500
C252        C  0.69211712  0.59698882  0.87285756     0.75200
C253        C  0.68681817  0.62608776  0.96249951     0.77600
Cd254      Cd  0.70152122  0.60436588  0.94823861     1.37500
O255        O  0.68121587  0.57274181  0.97061997    -0.57400
O256        O  0.67685396  0.60889510  0.96070082    -0.56200
C257        C  0.73943992  0.61650987  0.94875262     0.77600
O258        O  0.70382362  0.63331655  0.95989899    -0.58500
O259        O  0.69913294  0.59269194  0.00970708    -0.57000
O260        O  0.70203687  0.61300911  0.88525744    -0.57000
O261        O  0.72784658  0.60409921  0.92788029    -0.56200
O262        O  0.57558371  0.68892532  0.99444878    -0.57400
C263        C  0.59968265  0.70534054  0.09587615     0.75300
O264        O  0.63444430  0.71081567  0.00614782    -0.58500
C265        C  0.57827985  0.69703454  0.96437314     0.75200
C266        C  0.62215574  0.74947964  0.01403831     0.77600
Cd267      Cd  0.60668416  0.71081784  0.01856773     1.37500
O268        O  0.58681803  0.70033158  0.07365631    -0.57400
O269        O  0.60812257  0.73861686  0.03263334    -0.56200
C270        C  0.62599974  0.69387793  0.99999547     0.77600
O271        O  0.62981102  0.74265752  0.99814003    -0.58500
O272        O  0.61525409  0.71163890  0.08219531    -0.57000
O273        O  0.59386466  0.71148727  0.95975149    -0.57000
O274        O  0.60883677  0.68492675  0.00239606    -0.56200
O275        O  0.39284060  0.29050537  0.96703183    -0.57400
C276        C  0.36641733  0.27299508  0.86565584     0.75300
O277        O  0.34087168  0.23686089  0.96283291    -0.58500
C278        C  0.38908217  0.28461659  0.99941419     0.75200
C279        C  0.34011077  0.28493302  0.95553311     0.77600
Cd280      Cd  0.36133301  0.26942742  0.94356628     1.37500
O281        O  0.37970412  0.28228348  0.88707350    -0.57400
O282        O  0.35677476  0.29444409  0.94671335    -0.56200
C283        C  0.35188652  0.23274846  0.95237347     0.77600
O284        O  0.33312827  0.26806012  0.96034706    -0.58500
O285        O  0.35095539  0.26254121  0.88032779    -0.57000
O286        O  0.37248595  0.27259661  0.00583618    -0.57000
O287        O  0.36611849  0.24508853  0.93616446    -0.56200
O288        O  0.27751782  0.40050518  0.00593837    -0.57400
C289        C  0.26132293  0.37194766  0.10334324     0.75300
O290        O  0.22539546  0.34461311  0.01421341    -0.58500
C291        C  0.27479030  0.39729207  0.97219336     0.75200
C292        C  0.27503420  0.34790930  0.00731047     0.77600
Cd293      Cd  0.25852982  0.36797010  0.02501264     1.37500
O294        O  0.27148792  0.38533068  0.08256534    -0.57400
O295        O  0.28376872  0.36337615  0.02251082    -0.56200
C296        C  0.22107346  0.35611937  0.01555796     0.77600
O297        O  0.25851026  0.34162141  0.00042455    -0.58500
O298        O  0.25004698  0.35701774  0.08783627    -0.57000
O299        O  0.26496540  0.38066002  0.96325364    -0.57000
O300        O  0.23384001  0.37246105  0.02153257    -0.56200
O301        O  0.39154201  0.10326500  0.50357294    -0.57400
C302        C  0.36445830  0.08732748  0.59888991     0.75300
O303        O  0.33860654  0.09859834  0.50267986    -0.58500
C304        C  0.38887729  0.10479180  0.47036874     0.75200
C305        C  0.33842113  0.05139466  0.50321849     0.77600
Cd306      Cd  0.35948882  0.08940713  0.52202997     1.37500
O307        O  0.37791071  0.09547952  0.57734088    -0.57400
O308        O  0.35562030  0.06101317  0.50233329    -0.56200
C309        C  0.34920688  0.11494824  0.51300756     0.77600
O310        O  0.33066608  0.05951932  0.51089687    -0.58500
O311        O  0.34891499  0.08057313  0.58497891    -0.57000
O312        O  0.37275143  0.09924873  0.46152039    -0.57000
O313        O  0.36364496  0.11891367  0.52880236    -0.56200
O314        O  0.29147835  0.87292187  0.48362006    -0.57400
C315        C  0.27548054  0.87928891  0.38038935     0.75300
O316        O  0.23769348  0.86688917  0.46999599    -0.58500
C317        C  0.28529934  0.87064824  0.51573011     0.75200
C318        C  0.28434833  0.91785144  0.46843337     0.77600
Cd319      Cd  0.27027965  0.88002485  0.45755607     1.37500
O320        O  0.28307088  0.87446900  0.40235443    -0.57400
O321        O  0.29481524  0.91251917  0.46256118    -0.56200
C322        C  0.23290510  0.85055841  0.46570447     0.77600
O323        O  0.26754526  0.90559695  0.47162164    -0.58500
O324        O  0.26581122  0.88431146  0.39407630    -0.57000
O325        O  0.27280345  0.87336716  0.52070650    -0.57000
O326        O  0.24521498  0.84806740  0.45674330    -0.56200
O327        O  0.86347278  0.30079884  0.51624718    -0.57400
C328        C  0.87305880  0.28896513  0.61668866     0.75300
O329        O  0.85975520  0.24913057  0.52644448    -0.58500
C330        C  0.86245850  0.29601221  0.48343074     0.75200
C331        C  0.91129867  0.29377877  0.52641852     0.77600
Cd332      Cd  0.87394649  0.28189109  0.54023930     1.37500
O333        O  0.87734858  0.30125433  0.59332215    -0.57400
O334        O  0.90648722  0.30485036  0.52775368    -0.56200
C335        C  0.84391392  0.24435455  0.53633914     0.77600
O336        O  0.89885505  0.27712274  0.53082006    -0.58500
O337        O  0.86991473  0.27405151  0.60479272    -0.57000
O338        O  0.86724416  0.28513970  0.47713005    -0.57000
O339        O  0.84217076  0.25696316  0.54693514    -0.56200
O340        O  0.09792223  0.39995059  0.48653709    -0.57400
C341        C  0.08824428  0.37647370  0.38818490     0.75300
O342        O  0.08949549  0.34408654  0.47710377    -0.58500
C343        C  0.10000110  0.39691486  0.51911976     0.75200
C344        C  0.04460789  0.34787950  0.48009597     0.77600
Cd345      Cd  0.08358123  0.36828738  0.46535037     1.37500
O346        O  0.09008960  0.38799856  0.41129863    -0.57400
O347        O  0.05411216  0.36480973  0.47401675    -0.56200
C348        C  0.10668147  0.35504784  0.47634434     0.77600
O349        O  0.05311987  0.34013541  0.48039673    -0.58500
O350        O  0.08381169  0.36118839  0.40062645    -0.57000
O351        O  0.09423192  0.38059248  0.52693354    -0.57000
O352        O  0.11274458  0.37154802  0.46981729    -0.56200
O353        O  0.67423425  0.09406068  0.58672260    -0.57400
C354        C  0.67248411  0.10081535  0.47293343     0.75300
O355        O  0.72162238  0.10716968  0.51914210    -0.58500
C356        C  0.68210867  0.08901415  0.60742047     0.75200
C357        C  0.67583727  0.05418944  0.51457027     0.77600
Cd358      Cd  0.68837806  0.09141857  0.53003628     1.37500
O359        O  0.66716567  0.09897718  0.50562963    -0.57400
O360        O  0.66530953  0.05876588  0.52547587    -0.56200
C361        C  0.72543937  0.12221666  0.53210261     0.77600
O362        O  0.69236108  0.06707403  0.50990240    -0.58500
O363        O  0.68481538  0.09793326  0.46703961    -0.57000
O364        O  0.69218799  0.08495799  0.59191222    -0.57000
O365        O  0.71217459  0.12301458  0.54203185    -0.56200
O366        O  0.58094640  0.87273230  0.38921699    -0.57400
C367        C  0.57161987  0.87015992  0.50022946     0.75300
O368        O  0.62142953  0.87410362  0.45938350    -0.58500
C369        C  0.59442870  0.88083734  0.36763816     0.75200
C370        C  0.62138651  0.92212405  0.45660309     0.77600
Cd371      Cd  0.59977336  0.88316032  0.44500290     1.37500
O372        O  0.56879355  0.87241404  0.46759993    -0.57400
O373        O  0.60584342  0.91364085  0.44204320    -0.56200
C374        C  0.61039628  0.85767234  0.44977195     0.77600
O375        O  0.62718624  0.91247637  0.46666481    -0.58500
O376        O  0.58749804  0.87420989  0.50697079    -0.57000
O377        O  0.61006253  0.89020719  0.38183623    -0.57000
O378        O  0.59508637  0.85355095  0.43830889    -0.56200
O379        O  0.08341275  0.67813786  0.40384225    -0.57400
C380        C  0.09395485  0.68066123  0.51246383     0.75300
O381        O  0.09655524  0.72707911  0.47471099    -0.58500
C382        C  0.07905380  0.68562218  0.38057338     0.75200
C383        C  0.04459237  0.68343290  0.47330182     0.77600
Cd384      Cd  0.08161142  0.69474538  0.45711001     1.37500
O385        O  0.08854524  0.67300457  0.48177457    -0.57400
O386        O  0.04931244  0.67225882  0.47335355    -0.56200
C387        C  0.11149934  0.73245473  0.45893393     0.77600
O388        O  0.05718262  0.69993098  0.46794032    -0.58500
O389        O  0.09333104  0.69447408  0.51764595    -0.57000
O390        O  0.07624820  0.69726694  0.39271871    -0.57000
O391        O  0.11223794  0.72040488  0.44188493    -0.56200
O392        O  0.86711965  0.58800506  0.58070982    -0.57400
C393        C  0.85243115  0.57969641  0.47629725     0.75300
O394        O  0.86120054  0.62747590  0.50620549    -0.58500
C395        C  0.87215007  0.60015062  0.60483881     0.75200
C396        C  0.91070005  0.62888712  0.51156023     0.77600
Cd397      Cd  0.87203718  0.60836292  0.52926789     1.37500
O398        O  0.85353581  0.57616599  0.50916291    -0.57400
O399        O  0.90083106  0.61169860  0.51311574    -0.56200
C400        C  0.84833446  0.62141708  0.52916150     0.77600
O401        O  0.90279946  0.63696163  0.51836654    -0.58500
O402        O  0.86068024  0.59639833  0.46840872    -0.57000
O403        O  0.87732089  0.61587350  0.59352268    -0.57000
O404        O  0.84701125  0.61005156  0.55194593    -0.56200
O405        O  0.67724549  0.58273305  0.58009086    -0.57400
C406        C  0.67903334  0.57477030  0.46675112     0.75300
O407        O  0.69480113  0.62911543  0.50460360    -0.58500
C408        C  0.68795028  0.59555725  0.60148713     0.75200
C409        C  0.73002058  0.61167354  0.52325506     0.77600
Cd410      Cd  0.69265257  0.60113305  0.52448160     1.37500
O411        O  0.67280703  0.57002366  0.49880371    -0.57400
O412        O  0.71673885  0.59572214  0.53091535    -0.56200
C413        C  0.67800013  0.62273056  0.50849198     0.77600
O414        O  0.72597252  0.62302872  0.51561357    -0.58500
O415        O  0.69097213  0.59152419  0.46178668    -0.57000
O416        O  0.69968270  0.61064323  0.58704472    -0.57000
O417        O  0.66825462  0.60648148  0.51975519    -0.56200
O418        O  0.57930469  0.69247428  0.39048308    -0.57400
C419        C  0.57124915  0.69186296  0.50278510     0.75300
O420        O  0.62711401  0.70939957  0.46335329    -0.58500
C421        C  0.59253761  0.70043922  0.36830749     0.75200
C422        C  0.60837479  0.74353410  0.45059180     0.77600
Cd423      Cd  0.59849581  0.70657132  0.44543435     1.37500
O424        O  0.56702362  0.68648012  0.47022871    -0.57400
O425        O  0.59308372  0.73055522  0.43927835    -0.56200
C426        C  0.62068075  0.69256803  0.46010740     0.77600
O427        O  0.61998936  0.73983101  0.45801377    -0.58500
O428        O  0.58807689  0.70303614  0.50860922    -0.57000
O429        O  0.60823013  0.71064900  0.38184062    -0.57000
O430        O  0.60416365  0.68243277  0.45069215    -0.56200
O431        O  0.38813100  0.28475403  0.49098629    -0.57400
C432        C  0.36283686  0.26826824  0.59267802     0.75300
O433        O  0.32859942  0.26084063  0.49643281    -0.58500
C434        C  0.38484336  0.27680566  0.46055216     0.75200
C435        C  0.34592581  0.22582712  0.51263735     0.77600
Cd436      Cd  0.35688867  0.26322661  0.51553682     1.37500
O437        O  0.37551583  0.27853803  0.57051994    -0.57400
O438        O  0.36065778  0.23839536  0.52691584    -0.56200
C439        C  0.33502156  0.27763993  0.50010176     0.77600
O440        O  0.33555234  0.23034293  0.50035716    -0.58500
O441        O  0.34763144  0.25638075  0.57898153    -0.57000
O442        O  0.36873267  0.26337810  0.45533302    -0.57000
O443        O  0.35137359  0.28757318  0.51046887    -0.56200
O444        O  0.26502709  0.37969180  0.39973876    -0.57400
C445        C  0.26672119  0.38785166  0.50985252     0.75300
O446        O  0.21932528  0.33767476  0.47257294    -0.58500
C447        C  0.25682002  0.36681485  0.37701142     0.75200
C448        C  0.26728184  0.33871462  0.46750511     0.77600
Cd449      Cd  0.25178353  0.35984305  0.45426746     1.37500
O450        O  0.27189116  0.39151077  0.47700363    -0.57400
O451        O  0.27697413  0.35567682  0.46137484    -0.56200
C452        C  0.21409163  0.34768273  0.46179895     0.77600
O453        O  0.25021881  0.33131889  0.46746216    -0.58500
O454        O  0.25532189  0.37118691  0.51683497    -0.57000
O455        O  0.24697949  0.35090748  0.39002636    -0.57000
O456        O  0.22607219  0.36259238  0.44706242    -0.56200
C457        C  0.30185241  0.28839633  0.46158635    -0.22000
C458        C  0.30382766  0.30131119  0.48676014     0.10000
C459        C  0.31587898  0.30623866  0.51619065     0.10400
C460        C  0.32584503  0.29827132  0.51950816    -0.16900
C461        C  0.32402501  0.28540211  0.49421183    -0.27300
C462        C  0.31194633  0.28052725  0.46457413     0.18700
C463        C  0.29396003  0.31029790  0.48069716     0.12700
C464        C  0.31839527  0.32007486  0.54382402    -0.11700
H465        H  0.33506208  0.30204063  0.54220582     0.12900
C466        C  0.30995240  0.26792200  0.43450264    -0.22500
H467        H  0.29273742  0.28483091  0.43877131     0.08600
C468        C  0.30037140  0.32460446  0.45540073     0.04900
C469        C  0.29128311  0.33346885  0.45197728    -0.19800
C470        C  0.27575953  0.32830099  0.47293297    -0.12000
C471        C  0.26919260  0.31371591  0.49807588     0.13600
C472        C  0.27835934  0.30487516  0.50135978    -0.22500
C473        C  0.31693500  0.33065153  0.43227191    -0.05600
H474        H  0.29630193  0.34449178  0.43254255     0.15200
C475        C  0.25320875  0.30748475  0.52316923    -0.15700
H476        H  0.27353856  0.29390130  0.52085942     0.09500
H477        H  0.31277175  0.27501681  0.40798051     0.07300
H478        H  0.29579920  0.25564420  0.43433920     0.08500
H479        H  0.31945774  0.26353580  0.43666206     0.07600
H480        H  0.30525759  0.31515795  0.55773501     0.02500
H481        H  0.32324938  0.33322393  0.53012058     0.02900
H482        H  0.32851237  0.32253657  0.56484242     0.06400
H483        H  0.32026139  0.34219078  0.41421507     0.05400
H484        H  0.31447382  0.31920933  0.41487110    -0.00300
H485        H  0.32887036  0.33510991  0.44992429     0.01100
H486        H  0.24219950  0.29319831  0.51661439     0.04800
H487        H  0.24759476  0.31595849  0.52195248     0.06700
H488        H  0.25753067  0.30802534  0.55169423     0.07600
C489        C  0.64566387  0.63857797  0.49766621    -0.22000
C490        C  0.65739463  0.65592400  0.48269796     0.10000
C491        C  0.67576646  0.66238111  0.47629853     0.10400
C492        C  0.68202076  0.65125745  0.48501279    -0.16900
C493        C  0.67033181  0.63374735  0.50006324    -0.27300
C494        C  0.65179304  0.62737301  0.50649861     0.18700
C495        C  0.64992891  0.66700766  0.47454234     0.12700
C496        C  0.68869874  0.68094252  0.46003263    -0.11700
H497        H  0.69616971  0.65632280  0.47989219     0.12900
C498        C  0.63825864  0.60894650  0.52287248    -0.22500
H499        H  0.63156298  0.63381777  0.50254062     0.08600
C500        C  0.63953277  0.66385654  0.44308289     0.04900
C501        C  0.63049105  0.67273629  0.43906358    -0.19800
C502        C  0.63177464  0.68490271  0.46552015    -0.12000
C503        C  0.64290158  0.68866396  0.49638327     0.13600
C504        C  0.65184289  0.67964555  0.50037397    -0.22500
C505        C  0.63793481  0.65106326  0.41387741    -0.05600
H506        H  0.62222265  0.67005530  0.41516779     0.15200
C507        C  0.64496588  0.70119775  0.52667452    -0.15700
H508        H  0.65983190  0.68196977  0.52455486     0.09500
H509        H  0.62458447  0.60656834  0.52627769     0.07300
H510        H  0.64291613  0.60793119  0.55018302     0.08500
H511        H  0.63664381  0.59803511  0.50487728     0.07600
H512        H  0.68965376  0.69154820  0.47803047     0.02500
H513        H  0.68369209  0.68174212  0.43295523     0.02900
H514        H  0.70259578  0.68388894  0.45653787     0.06400
H515        H  0.62951408  0.65036239  0.39078064     0.05400
H516        H  0.63151344  0.63712957  0.42515071    -0.00300
H517        H  0.65168761  0.65583384  0.40324646     0.01100
H518        H  0.64066891  0.69357417  0.55275284     0.04800
H519        H  0.63667169  0.70692248  0.52305704     0.06700
H520        H  0.65947927  0.71266055  0.52881939     0.07600
C521        C  0.81029280  0.62679338  0.55805041    -0.22000
C522        C  0.80279535  0.62628556  0.52428761     0.10000
C523        C  0.81209839  0.62727838  0.49216057     0.10400
C524        C  0.82798198  0.62724181  0.49454343    -0.16900
C525        C  0.83469779  0.62623157  0.52838439    -0.27300
C526        C  0.82628453  0.62706058  0.56056086     0.18700
C527        C  0.78428532  0.62272912  0.52342980     0.12700
C528        C  0.80481018  0.62759256  0.45546572    -0.11700
H529        H  0.83448471  0.62682401  0.46984463     0.12900
C530        C  0.83376641  0.62831906  0.59799473    -0.22500
H531        H  0.80332118  0.62646588  0.58266777     0.08600
C532        C  0.76875866  0.60482357  0.52673422     0.04900
C533        C  0.75141802  0.60181412  0.52649239    -0.19800
C534        C  0.74905014  0.61627280  0.52316069    -0.12000
C535        C  0.76476319  0.63433333  0.52032795     0.13600
C536        C  0.78217059  0.63727367  0.52033931    -0.22500
C537        C  0.77050108  0.58883507  0.53041252    -0.05600
H538        H  0.73961121  0.58795862  0.52886246     0.15200
C539        C  0.76347612  0.65062760  0.51801328    -0.15700
H540        H  0.79423513  0.65100153  0.51820486     0.09500
H541        H  0.82413630  0.61575972  0.61359270     0.07300
H542        H  0.83541963  0.64020104  0.61248133     0.08500
H543        H  0.84733737  0.63037937  0.59755353     0.07600
H544        H  0.80409612  0.63973360  0.45339177     0.02500
H545        H  0.79096795  0.61510151  0.45179610     0.02900
H546        H  0.81363749  0.62824099  0.43307791     0.06400
H547        H  0.75699914  0.57572376  0.53239693     0.05400
H548        H  0.77826438  0.59035223  0.55532648    -0.00300
H549        H  0.77774433  0.58815658  0.50636114     0.01100
H550        H  0.75621279  0.65109162  0.54227187     0.04800
H551        H  0.75616491  0.64987668  0.49292675     0.06700
H552        H  0.77713621  0.66360436  0.51705970     0.07600
C553        C  0.99888599  0.67874262  0.46893559    -0.22000
C554        C  0.98844505  0.66421216  0.49296885     0.10000
C555        C  0.99654746  0.65633648  0.51090435     0.10400
C556        C  0.01490589  0.66305064  0.50409602    -0.16900
C557        C  0.02538891  0.67739067  0.47948166    -0.27300
C558        C  0.01713845  0.68521688  0.46126976     0.18700
C559        C  0.96863102  0.65626853  0.49637466     0.12700
C560        C  0.98575858  0.64078736  0.53715358    -0.11700
H561        H  0.02110534  0.65700684  0.51804525     0.12900
C562        C  0.02650776  0.69948168  0.43189222    -0.22500
H563        H  0.99246868  0.68450289  0.45472479     0.08600
C564        C  0.96159266  0.66335550  0.52049243     0.04900
C565        C  0.94259858  0.65459464  0.52376525    -0.19800
C566        C  0.93050556  0.63888103  0.50347147    -0.12000
C567        C  0.93773675  0.63239110  0.47795640     0.13600
C568        C  0.95666190  0.64104593  0.47516740    -0.22500
C569        C  0.97413143  0.67986716  0.54329045    -0.05600
H570        H  0.93716677  0.65966919  0.54318770     0.15200
C571        C  0.92611697  0.61678282  0.45232522    -0.15700
H572        H  0.96217628  0.63588381  0.45612767     0.09500
H573        H  0.02896262  0.71256343  0.44174669     0.07300
H574        H  0.01762777  0.69507575  0.40757163     0.08500
H575        H  0.03951441  0.70173854  0.42248301     0.07600
H576        H  0.97413218  0.62895153  0.52292030     0.02500
H577        H  0.98048691  0.64507853  0.55959658     0.02900
H578        H  0.99419074  0.63633258  0.54919127     0.06400
H579        H  0.96644594  0.68355496  0.56105898     0.05400
H580        H  0.98321280  0.69166731  0.52537917    -0.00300
H581        H  0.98255694  0.67713266  0.56083423     0.01100
H582        H  0.93089577  0.62127400  0.42399678     0.04800
H583        H  0.91155890  0.61190119  0.45294146     0.06700
H584        H  0.92740161  0.60526541  0.45887066     0.07600
C585        C  0.60199956  0.78169780  0.47123952    -0.22000
C586        C  0.61708978  0.79636971  0.45349585     0.10000
C587        C  0.63032603  0.79411639  0.43776015     0.10400
C588        C  0.62768401  0.77685534  0.43869834    -0.16900
C589        C  0.61207698  0.76192285  0.45496229    -0.27300
C590        C  0.59940446  0.76455477  0.47259357     0.18700
C591        C  0.61791984  0.81353683  0.45022668     0.12700
C592        C  0.64702671  0.80983922  0.41965579    -0.11700
H593        H  0.63744575  0.77484816  0.42549792     0.12900
C594        C  0.58315423  0.74974501  0.49365851    -0.22500
H595        H  0.59202618  0.78360192  0.48379540     0.08600
C596        C  0.60968013  0.81637437  0.42068499     0.04900
C597        C  0.60839159  0.83148934  0.42090540    -0.19800
C598        C  0.61476187  0.84370387  0.45029277    -0.12000
C599        C  0.62333599  0.84100195  0.47977056     0.13600
C600        C  0.62494687  0.82600710  0.47904978    -0.22500
C601        C  0.60155175  0.80303829  0.38960191    -0.05600
H602        H  0.60180823  0.83347826  0.39834364     0.15200
C603        C  0.62986136  0.85266467  0.51346975    -0.15700
H604        H  0.63095520  0.82352232  0.50198938     0.09500
H605        H  0.57042185  0.74648385  0.48032834     0.07300
H606        H  0.58349728  0.75459027  0.52170749     0.08500
H607        H  0.58282606  0.73706387  0.49622046     0.07600
H608        H  0.65490127  0.82095159  0.43966301     0.02500
H609        H  0.64305461  0.81508024  0.39677187     0.02900
H610        H  0.65602238  0.80576806  0.40875449     0.06400
H611        H  0.59548661  0.80725779  0.36886821     0.05400
H612        H  0.59064854  0.78939235  0.39991646    -0.00300
H613        H  0.61221386  0.80202895  0.37607519     0.01100
H614        H  0.62284533  0.84396802  0.53764236     0.04800
H615        H  0.62717311  0.86347939  0.51353070     0.06700
H616        H  0.64474908  0.85916331  0.51646390     0.07600
C617        C  0.64711233  0.00213463  0.51300383    -0.22000
C618        C  0.65737232  0.99871710  0.48943681     0.10000
C619        C  0.67391740  0.01338740  0.47511274     0.10400
C620        C  0.67971857  0.03129311  0.48427211    -0.16900
C621        C  0.66923472  0.03488425  0.50714859    -0.27300
C622        C  0.65280701  0.01998825  0.52223231     0.18700
C623        C  0.64996644  0.97958628  0.47922293     0.12700
C624        C  0.68532547  0.01011543  0.44995367    -0.11700
H625        H  0.69235681  0.04254859  0.47288472     0.12900
C626        C  0.64129530  0.02258311  0.54861388    -0.22500
H627        H  0.63446513  0.99070286  0.52397756     0.08600
C628        C  0.65278687  0.96822309  0.50090764     0.04900
C629        C  0.64385765  0.94966510  0.49206773    -0.19800
C630        C  0.63189411  0.94215929  0.46239545    -0.12000
C631        C  0.62974427  0.95386575  0.43978193     0.13600
C632        C  0.63882704  0.97241401  0.44858284    -0.22500
C633        C  0.66492800  0.97565098  0.53373765    -0.05600
H634        H  0.64571728  0.94085773  0.50923251     0.15200
C635        C  0.61813827  0.94710123  0.40607049    -0.15700
H636        H  0.63689468  0.98134486  0.43197057     0.09500
H637        H  0.62962583  0.00937757  0.55910447     0.07300
H638        H  0.63558200  0.02954569  0.53498793     0.08500
H639        H  0.64964654  0.03071266  0.57228280     0.07600
H640        H  0.67739980  0.00284976  0.42526358     0.02500
H641        H  0.68933379  0.00171457  0.46387805     0.02900
H642        H  0.69793291  0.02307934  0.44130372     0.06400
H643        H  0.66571687  0.96497242  0.54773620     0.05400
H644        H  0.65956907  0.98115515  0.55337961    -0.00300
H645        H  0.67891239  0.98672577  0.52539358     0.01100
H646        H  0.61923874  0.95843221  0.39043799     0.04800
H647        H  0.60359315  0.93756195  0.41350959     0.06700
H648        H  0.62259204  0.94017595  0.38798517     0.07600
C649        C  0.16720760  0.33277041  0.49880470    -0.22000
C650        C  0.16110056  0.33868790  0.47053737     0.10000
C651        C  0.17171141  0.34600857  0.43870099     0.10400
C652        C  0.18837498  0.34760443  0.43618743    -0.16900
C653        C  0.19508320  0.34262727  0.46512771    -0.27300
C654        C  0.18422412  0.33491230  0.49690493     0.18700
C655        C  0.14565949  0.34056352  0.47731929     0.12700
C656        C  0.16602018  0.35319932  0.40821584    -0.11700
H657        H  0.19663930  0.35355769  0.41192192     0.12900
C658        C  0.19045681  0.33012668  0.53048987    -0.22500
H659        H  0.15919128  0.32759018  0.52355965     0.08600
C660        C  0.12804222  0.32821087  0.46348448     0.04900
C661        C  0.11500344  0.33265500  0.46556854    -0.19800
C662        C  0.11925765  0.34908324  0.48149148    -0.12000
C663        C  0.13637033  0.36044722  0.49859790     0.13600
C664        C  0.14942452  0.35620305  0.49560335    -0.22500
C665        C  0.12314013  0.31055158  0.44626222    -0.05600
H666        H  0.10177669  0.32370888  0.45319729     0.15200
C667        C  0.14136769  0.37704137  0.52060735    -0.15700
H668        H  0.16284886  0.36540277  0.50705630     0.09500
H669        H  0.18123137  0.31528976  0.53586463     0.07300
H670        H  0.18990346  0.33765391  0.55413407     0.08500
H671        H  0.20454793  0.33365411  0.52880990     0.07600
H672        H  0.16470609  0.36426386  0.41845829     0.02500
H673        H  0.15276627  0.34213174  0.39698852     0.02900
H674        H  0.17611545  0.35882292  0.38565147     0.06400
H675        H  0.10876652  0.30241788  0.43700718     0.05400
H676        H  0.12495150  0.30231846  0.46635920    -0.00300
H677        H  0.13201090  0.31320361  0.42241442     0.01100
H678        H  0.14634473  0.37620161  0.54770587     0.04800
H679        H  0.12971688  0.37826519  0.52568633     0.06700
H680        H  0.15238551  0.38950405  0.50656622     0.07600
C681        C  0.95855139  0.30268921  0.53566226    -0.22000
C682        C  0.96741480  0.31389171  0.50546113     0.10000
C683        C  0.95764920  0.31793880  0.48161532     0.10400
C684        C  0.93933126  0.31114690  0.48921494    -0.16900
C685        C  0.93046045  0.30009766  0.51970671    -0.27300
C686        C  0.94019580  0.29575743  0.54322240     0.18700
C687        C  0.98719717  0.32212241  0.50042596     0.12700
C688        C  0.96660182  0.32945354  0.44824631    -0.11700
H689        H  0.93184607  0.31439522  0.47115857     0.12900
C690        C  0.93206613  0.28463932  0.57739675    -0.22500
H691        H  0.96616285  0.29972903  0.55401475     0.08600
C692        C  0.00020944  0.33915047  0.51584615     0.04900
C693        C  0.01878046  0.34695042  0.50899601    -0.19800
C694        C  0.02474619  0.33812135  0.48719241    -0.12000
C695        C  0.01159947  0.32089785  0.47191605     0.13600
C696        C  0.99300687  0.31307661  0.47912871    -0.22500
C697        C  0.99445603  0.34913116  0.53935399    -0.05600
H698        H  0.02874672  0.36009720  0.52073460     0.15200
C699        C  0.01632506  0.31071494  0.44637669    -0.15700
H700        H  0.98290637  0.30003938  0.46715541     0.09500
H701        H  0.94037963  0.29274150  0.60111638     0.07300
H702        H  0.93213961  0.27212146  0.57549623     0.08500
H703        H  0.91794038  0.28056156  0.58278850     0.07600
H704        H  0.97146095  0.32282466  0.43037350     0.02500
H705        H  0.97836679  0.34313695  0.45618009     0.02900
H706        H  0.95702582  0.33125792  0.43242110     0.06400
H707        H  0.00634881  0.36227501  0.54935407     0.05400
H708        H  0.98673580  0.34063428  0.56329498    -0.00300
H709        H  0.98567176  0.35205814  0.52358878     0.01100
H710        H  0.01218294  0.29747488  0.45876317     0.04800
H711        H  0.03093314  0.31820370  0.43927584     0.06700
H712        H  0.00881382  0.30803550  0.42050192     0.07600
C713        C  0.81223190  0.19239098  0.54154703    -0.22000
C714        C  0.79561169  0.18997605  0.53271797     0.10000
C715        C  0.79505358  0.20522935  0.52437376     0.10400
C716        C  0.81114864  0.22264337  0.52547143    -0.16900
C717        C  0.82787745  0.22528247  0.53479045    -0.27300
C718        C  0.82840688  0.20986423  0.54314616     0.18700
C719        C  0.77869514  0.17149754  0.53392723     0.12700
C720        C  0.77746054  0.20311421  0.51412674    -0.11700
H721        H  0.81064686  0.23433607  0.51896065     0.12900
C722        C  0.84527287  0.21104769  0.55568663    -0.22500
H723        H  0.81247349  0.18056983  0.54832198     0.08600
C724        C  0.77340599  0.15923370  0.50466821     0.04900
C725        C  0.75625512  0.14266631  0.50560404    -0.19800
C726        C  0.74432306  0.13825967  0.53506407    -0.12000
C727        C  0.75021987  0.15008487  0.56546486     0.13600
C728        C  0.76724811  0.16665582  0.56422426    -0.22500
C729        C  0.78557993  0.16396803  0.47199661    -0.05600
H730        H  0.75181595  0.13352549  0.48252796     0.15200
C731        C  0.73919342  0.14562141  0.59996088    -0.15700
H732        H  0.77157607  0.17600980  0.58694323     0.09500
H733        H  0.84902825  0.20428878  0.53549327     0.07300
H734        H  0.84243991  0.20389454  0.58214138     0.08500
H735        H  0.85712878  0.22509281  0.55999267     0.07600
H736        H  0.76757963  0.19689233  0.53695928     0.02500
H737        H  0.77161696  0.19424876  0.48980912     0.02900
H738        H  0.77951120  0.21642658  0.50767966     0.06400
H739        H  0.77929026  0.15297343  0.45129160     0.05400
H740        H  0.79868254  0.16608547  0.48041813    -0.00300
H741        H  0.78828662  0.17664432  0.45924439     0.01100
H742        H  0.74765631  0.14694550  0.62353314     0.04800
H743        H  0.72692013  0.13153078  0.60069213     0.06700
H744        H  0.73501933  0.15531339  0.60348194     0.07600
C745        C  0.19142552  0.80392207  0.48856672    -0.22000
C746        C  0.17813581  0.80385962  0.46785087     0.10000
C747        C  0.18240006  0.81982484  0.44967164     0.10400
C748        C  0.20027706  0.83534967  0.45113480    -0.16900
C749        C  0.21388061  0.83507069  0.47008706    -0.27300
C750        C  0.20924784  0.81938935  0.49021865     0.18700
C751        C  0.16035058  0.78642118  0.46340152     0.12700
C752        C  0.16821750  0.82025917  0.42801993    -0.11700
H753        H  0.20384413  0.84745069  0.43603889     0.12900
C754        C  0.22259693  0.81852019  0.51408690    -0.22500
H755        H  0.18794166  0.79165946  0.50294303     0.08600
C756        C  0.15781338  0.77413917  0.43583515     0.04900
C757        C  0.14145006  0.75696155  0.43446639    -0.19800
C758        C  0.12753090  0.75161713  0.46021732    -0.12000
C759        C  0.12991953  0.76427142  0.48727486     0.13600
C760        C  0.14637728  0.78154136  0.48846826    -0.22500
C761        C  0.17257564  0.77901316  0.40834449    -0.05600
H762        H  0.13970534  0.74750230  0.41345609     0.15200
C763        C  0.11562925  0.75961581  0.51574021    -0.15700
H764        H  0.14857494  0.79114644  0.50956576     0.09500
H765        H  0.22470640  0.80802628  0.50351701     0.07300
H766        H  0.21701470  0.81471169  0.54213123     0.08500
H767        H  0.23599004  0.83166323  0.51601031     0.07600
H768        H  0.15674109  0.81719443  0.44610384     0.02500
H769        H  0.16299036  0.80994921  0.40600687     0.02900
H770        H  0.17383286  0.83381202  0.41540130     0.06400
H771        H  0.16834954  0.76781459  0.38861346     0.05400
H772        H  0.18498938  0.78183697  0.42239322    -0.00300
H773        H  0.17591230  0.79129429  0.39288642     0.01100
H774        H  0.12010355  0.77104081  0.53502858     0.04800
H775        H  0.11276012  0.74762947  0.53172563     0.06700
H776        H  0.10296968  0.75663722  0.50256373     0.07600
C777        C  0.33256826  0.17872464  0.48049602    -0.22000
C778        C  0.33804955  0.17317447  0.51048169     0.10000
C779        C  0.34468158  0.18424163  0.54172372     0.10400
C780        C  0.34615187  0.20088965  0.54190839    -0.16900
C781        C  0.34144533  0.20696764  0.51139348    -0.27300
C782        C  0.33437203  0.19559744  0.48023302     0.18700
C783        C  0.33935082  0.15721528  0.50691177     0.12700
C784        C  0.35087332  0.17880462  0.57438027    -0.11700
H785        H  0.35157100  0.20952004  0.56575077     0.12900
C786        C  0.32979233  0.20106921  0.44529264    -0.22500
H787        H  0.32778455  0.17026999  0.45634646     0.08600
C788        C  0.32541891  0.13965677  0.51889742     0.04900
C789        C  0.32852767  0.12564178  0.51876859    -0.19800
C790        C  0.34528198  0.12896264  0.50702816    -0.12000
C791        C  0.35868821  0.14626264  0.49260057     0.13600
C792        C  0.35559808  0.16019453  0.49312040    -0.22500
C793        C  0.30750785  0.13587787  0.53238300    -0.05600
H794        H  0.31818505  0.11230952  0.52932774     0.15200
C795        C  0.37629853  0.15049913  0.47594853    -0.15700
H796        H  0.36610907  0.17363481  0.48324331     0.09500
H797        H  0.31507692  0.19144482  0.43943430     0.07300
H798        H  0.33779013  0.20043225  0.42265365     0.08500
H799        H  0.33290329  0.21503106  0.44549925     0.07600
H800        H  0.36219654  0.17739402  0.56656557     0.02500
H801        H  0.33940762  0.16561395  0.58528659     0.02900
H802        H  0.35579144  0.18908245  0.59644173     0.06400
H803        H  0.29807978  0.12142588  0.54069388     0.05400
H804        H  0.30090435  0.13883626  0.51047077    -0.00300
H805        H  0.30973645  0.14460762  0.55619754     0.01100
H806        H  0.37757012  0.15566571  0.44785290     0.04800
H807        H  0.37717029  0.13847776  0.47397840     0.06700
H808        H  0.38796297  0.16116352  0.49221533     0.07600
C809        C  0.30796208  0.00001480  0.51466946    -0.22000
C810        C  0.31295508  0.99432190  0.48399916     0.10000
C811        C  0.32523782  0.00727830  0.45843972     0.10400
C812        C  0.33279416  0.02582633  0.46484823    -0.16900
C813        C  0.32823681  0.03165712  0.49610052    -0.27300
C814        C  0.31555443  0.01854975  0.52132555     0.18700
C815        C  0.30578556  0.97477672  0.48007124     0.12700
C816        C  0.33060363  0.00152005  0.42484824    -0.11700
H817        H  0.34257595  0.03587896  0.44569904     0.12900
C818        C  0.31047638  0.02344513  0.55655909    -0.22500
H819        H  0.29855131  0.98993769  0.53423727     0.08600
C820        C  0.31482757  0.96730473  0.49561462     0.04900
C821        C  0.30755203  0.94868160  0.49113751    -0.19800
C822        C  0.29146865  0.93740612  0.47141078    -0.12000
C823        C  0.28276966  0.94512574  0.45481270     0.13600
C824        C  0.28988243  0.96365984  0.46004123    -0.22500
C825        C  0.33213290  0.97901099  0.51688032    -0.05600
H826        H  0.31434384  0.94284736  0.50343462     0.15200
C827        C  0.26662614  0.93468598  0.42983858    -0.15700
H828        H  0.28323341  0.96961639  0.44760141     0.09500
H829        H  0.31394855  0.01784302  0.57966248     0.07300
H830        H  0.29559283  0.01738514  0.55708008     0.08500
H831        H  0.31758274  0.03826397  0.56106188     0.07600
H832        H  0.31832727  0.99227619  0.40833403     0.02500
H833        H  0.33712382  0.99427902  0.43262883     0.02900
H834        H  0.34037538  0.01338615  0.40770149     0.06400
H835        H  0.33748576  0.97102922  0.52712174     0.05400
H836        H  0.32953702  0.98508160  0.54057631    -0.00300
H837        H  0.34274037  0.99010548  0.49931733     0.01100
H838        H  0.25466421  0.93382676  0.44214094     0.04800
H839        H  0.26290635  0.92076925  0.42352747     0.06700
H840        H  0.26985272  0.94197026  0.40345325     0.07600
C841        C  0.27733211  0.38453902  0.20186476    -0.22000
C842        C  0.26075472  0.37382536  0.22045585     0.10000
C843        C  0.24450761  0.36310550  0.20063356     0.10400
C844        C  0.24526117  0.36305561  0.16254016    -0.16900
C845        C  0.26189828  0.37341210  0.14360713    -0.27300
C846        C  0.27822409  0.38428724  0.16372345     0.18700
C847        C  0.26082184  0.37280556  0.26066668     0.12700
C848        C  0.22640822  0.35154965  0.21975757    -0.11700
H849        H  0.23272906  0.35477061  0.14740584     0.12900
C850        C  0.29694030  0.39491804  0.14670330    -0.22500
H851        H  0.28979063  0.39255659  0.21735645     0.08600
C852        C  0.26249661  0.35959161  0.27809287     0.04900
C853        C  0.26133464  0.35820937  0.31609078    -0.19800
C854        C  0.25870082  0.36983385  0.33723506    -0.12000
C855        C  0.25719066  0.38325068  0.31968125     0.13600
C856        C  0.25843803  0.38462876  0.28156784    -0.22500
C857        C  0.26539127  0.34686516  0.25650038    -0.05600
H858        H  0.26248156  0.34794615  0.32943575     0.15200
C859        C  0.25329662  0.39568995  0.33962555    -0.15700
H860        H  0.25700814  0.39465567  0.26795807     0.09500
H861        H  0.30551029  0.39081463  0.15950952     0.07300
H862        H  0.30334677  0.40969585  0.15147343     0.08500
H863        H  0.29704575  0.39258983  0.11725052     0.07600
H864        H  0.22380853  0.36034593  0.23657492     0.02500
H865        H  0.22647703  0.34145503  0.23757743     0.02900
H866        H  0.21502173  0.34399057  0.20021371     0.06400
H867        H  0.26646968  0.33737455  0.27435582     0.05400
H868        H  0.27817661  0.35486109  0.24043673    -0.00300
H869        H  0.25380309  0.33861605  0.23773591     0.01100
H870        H  0.26481980  0.41006385  0.33559721     0.04800
H871        H  0.25104758  0.39296740  0.36911819     0.06700
H872        H  0.24074190  0.39394081  0.32851861     0.07600
C873        C  0.38368272  0.27656138  0.76841995    -0.22000
C874        C  0.36979060  0.27589863  0.74872232     0.10000
C875        C  0.35521905  0.27476072  0.76741563     0.10400
C876        C  0.35473877  0.27408452  0.80550751    -0.16900
C877        C  0.36843285  0.27439905  0.82552194    -0.27300
C878        C  0.38308981  0.27552611  0.80658936     0.18700
C879        C  0.36960284  0.27441787  0.70858652     0.12700
C880        C  0.34007250  0.27406646  0.74705525    -0.11700
H881        H  0.34350502  0.27320418  0.81979464     0.12900
C882        C  0.39770578  0.27448334  0.82502984    -0.22500
H883        H  0.39465554  0.27707130  0.75380511     0.08600
C884        C  0.37831472  0.28986660  0.68577815     0.04900
C885        C  0.37632243  0.28749813  0.64789634    -0.19800
C886        C  0.36551532  0.27002969  0.63252514    -0.12000
C887        C  0.35727094  0.25455153  0.65554380     0.13600
C888        C  0.35952994  0.25698491  0.69325054    -0.22500
C889        C  0.38938004  0.30877512  0.70149574    -0.05600
H890        H  0.38275788  0.29934063  0.63028878     0.15200
C891        C  0.34635597  0.23540949  0.64067084    -0.15700
H892        H  0.35302940  0.24521379  0.71106687     0.09500
H893        H  0.41110570  0.28751374  0.82103292     0.07300
H894        H  0.39826812  0.26330007  0.81271561     0.08500
H895        H  0.39536433  0.27155737  0.85443735     0.07600
H896        H  0.33305459  0.26186887  0.72926034     0.02500
H897        H  0.34574863  0.28648637  0.73008518     0.02900
H898        H  0.32978115  0.27332537  0.76579467     0.06400
H899        H  0.39520065  0.31936425  0.67991821     0.05400
H900        H  0.40078902  0.31042021  0.71765577    -0.00300
H901        H  0.38065913  0.31105188  0.71938052     0.01100
H902        H  0.35469533  0.23355255  0.62076735     0.04800
H903        H  0.33383193  0.23269015  0.62736073     0.06700
H904        H  0.34203990  0.22508186  0.66246864     0.07600
C905        C  0.32233780  0.31545802  0.94504624    -0.22000
C906        C  0.31146907  0.31085839  0.97624235     0.10000
C907        C  0.30924809  0.29704742  0.99947782     0.10400
C908        C  0.31826414  0.28837897  0.99136618    -0.16900
C909        C  0.32956201  0.29328309  0.96062456    -0.27300
C910        C  0.33121656  0.30670362  0.93660461     0.18700
C911        C  0.30236324  0.32053757  0.98387385     0.12700
C912        C  0.29754598  0.29165842  0.03308339    -0.11700
H913        H  0.31688726  0.27807392  0.00967581     0.12900
C914        C  0.34157696  0.31170156  0.90114620    -0.22500
H915        H  0.32373473  0.32583514  0.92689925     0.08600
C916        C  0.31096612  0.33674635  0.00433797     0.04900
C917        C  0.30167416  0.34520860  0.01150150    -0.19800
C918        C  0.28392131  0.33797940  0.99849732    -0.12000
C919        C  0.27545484  0.32176589  0.97737189     0.13600
C920        C  0.28480860  0.31330678  0.97046552    -0.22500
C921        C  0.32999502  0.34512454  0.01853324    -0.05600
H922        H  0.30840145  0.35759580  0.02749521     0.15200
C923        C  0.25670368  0.31326471  0.96156277    -0.15700
H924        H  0.27838354  0.30090376  0.95453365     0.09500
H925        H  0.35335448  0.32611535  0.90212573     0.07300
H926        H  0.33248357  0.31013507  0.87862046     0.08500
H927        H  0.34655940  0.30296962  0.89433158     0.07600
H928        H  0.28336208  0.28665474  0.02538975     0.02500
H929        H  0.30290827  0.30359388  0.05134808     0.02900
H930        H  0.29728030  0.28067684  0.04838123     0.06400
H931        H  0.33476116  0.35779984  0.03409894     0.05400
H932        H  0.33953825  0.34856655  0.99546633    -0.00300
H933        H  0.33041541  0.33537034  0.03679052     0.01100
H934        H  0.25256350  0.30096294  0.94519403     0.04800
H935        H  0.25645499  0.32315483  0.94339928     0.06700
H936        H  0.24653927  0.30900076  0.98373194     0.07600
C937        C  0.60670308  0.71520627  0.19728466    -0.22000
C938        C  0.59167630  0.69915686  0.21174433     0.10000
C939        C  0.57869819  0.68556449  0.18811009     0.10400
C940        C  0.58139968  0.68810318  0.15030929    -0.16900
C941        C  0.59678141  0.70396642  0.13573531    -0.27300
C942        C  0.60928680  0.71797791  0.15966726     0.18700
C943        C  0.59006749  0.69710588  0.25183618     0.12700
C944        C  0.56224031  0.66830070  0.20285464    -0.11700
H945        H  0.57169183  0.67747850  0.13208346     0.12900
C946        C  0.62506836  0.73634811  0.14692157    -0.22500
H947        H  0.61640994  0.72579112  0.21561746     0.08600
C948        C  0.60066985  0.69254117  0.27151301     0.04900
C949        C  0.60070154  0.69321354  0.30961132    -0.19800
C950        C  0.59016284  0.69807631  0.32854389    -0.12000
C951        C  0.57894229  0.70194525  0.30878982     0.13600
C952        C  0.57905085  0.70137661  0.27062133    -0.22500
C953        C  0.61203062  0.68708070  0.25223238    -0.05600
H954        H  0.60921196  0.69017065  0.32475885     0.15200
C955        C  0.56749610  0.70772103  0.32659561    -0.15700
H956        H  0.57099531  0.70496085  0.25534341     0.09500
H957        H  0.63808432  0.73811263  0.15477997     0.07300
H958        H  0.62426748  0.74722214  0.16009485     0.08500
H959        H  0.62520232  0.73848231  0.11729114     0.07600
H960        H  0.55393474  0.67161117  0.21953777     0.02500
H961        H  0.56662192  0.66107307  0.22000978     0.02900
H962        H  0.55351957  0.65897176  0.18072887     0.06400
H963        H  0.61925329  0.68362320  0.27169071     0.05400
H964        H  0.62238834  0.69842213  0.23477974    -0.00300
H965        H  0.60312868  0.67493444  0.23505794     0.01100
H966        H  0.57167881  0.72132133  0.31614240     0.04800
H967        H  0.56877305  0.70876933  0.35651182     0.06700
H968        H  0.55294721  0.69775986  0.31985934     0.07600
C969        C  0.68207076  0.60262304  0.77556162    -0.22000
C970        C  0.68429873  0.58994421  0.75778333     0.10000
C971        C  0.68743189  0.57844273  0.77820769     0.10400
C972        C  0.68895220  0.58037592  0.81613948    -0.16900
C973        C  0.68757603  0.59367556  0.83388188    -0.27300
C974        C  0.68335797  0.60445553  0.81343410     0.18700
C975        C  0.68470060  0.59001921  0.71762911     0.12700
C976        C  0.68947060  0.56439264  0.75986261    -0.11700
H977        H  0.69201386  0.57201318  0.83182209     0.12900
C978        C  0.67969963  0.61770214  0.83045594    -0.22500
H979        H  0.67944983  0.61127289  0.75967995     0.08600
C980        C  0.66865951  0.58168753  0.69675044     0.04900
C981        C  0.67001616  0.58318554  0.65868372    -0.19800
C982        C  0.68707760  0.59323803  0.64134830    -0.12000
C983        C  0.70313667  0.60124843  0.66246076     0.13600
C984        C  0.70169431  0.59947013  0.70033248    -0.22500
C985        C  0.65020278  0.57136964  0.71471910    -0.05600
H986        H  0.65774655  0.57697455  0.64249159     0.15200
C987        C  0.72185346  0.61136747  0.64535565    -0.15700
H988        H  0.71391546  0.60575932  0.71672443     0.09500
H989        H  0.66630508  0.61454361  0.82104519     0.07300
H990        H  0.69044152  0.63179800  0.82200908     0.08500
H991        H  0.67903052  0.61702455  0.86049953     0.07600
H992        H  0.70133085  0.57116217  0.74106725     0.02500
H993        H  0.67696412  0.55482808  0.74421795     0.02900
H994        H  0.69163903  0.55636571  0.77985365     0.06400
H995        H  0.63905305  0.56551004  0.69444863     0.05400
H996        H  0.64878342  0.58063711  0.73268431    -0.00300
H997        H  0.64860708  0.56003860  0.73119892     0.01100
H998        H  0.72476118  0.62396188  0.63190969     0.04800
H999        H  0.72272290  0.60251454  0.62513654     0.06700
H1000       H  0.73266845  0.61551295  0.66587514     0.07600
C1001       C  0.67669543  0.66284264  0.95528627    -0.22000
C1002       C  0.66186343  0.65596830  0.97912298     0.10000
C1003       C  0.65531778  0.63938775  0.99737861     0.10400
C1004       C  0.66382566  0.63005519  0.99142540    -0.16900
C1005       C  0.67876453  0.63690245  0.96762187    -0.27300
C1006       C  0.68507745  0.65342695  0.94876472     0.18700
C1007       C  0.65313778  0.66617809  0.98390265     0.12700
C1008       C  0.63938985  0.63159999  0.02319062    -0.11700
H1009       H  0.65883472  0.61735660  0.00563436     0.12900
C1010       C  0.69985272  0.66117656  0.92016472    -0.22500
H1011       H  0.68148505  0.67546784  0.94093316     0.08600
C1012       C  0.65954299  0.68025179  0.00974830     0.04900
C1013       C  0.65078220  0.68947282  0.01342367    -0.19800
C1014       C  0.63566984  0.68486592  0.99198488    -0.12000
C1015       C  0.62963156  0.67109686  0.96520552     0.13600
C1016       C  0.63835254  0.66182614  0.96183045    -0.22500
C1017       C  0.67545339  0.68532040  0.03377074    -0.05600
H1018       H  0.65543904  0.69999436  0.03389556     0.15200
C1019       C  0.61456134  0.66622649  0.93879741    -0.15700
H1020       H  0.63369230  0.65121191  0.94154570     0.09500
H1021       H  0.71172917  0.67449043  0.92951265     0.07300
H1022       H  0.69464709  0.66335017  0.89463157     0.08500
H1023       H  0.70448349  0.65219061  0.91315475     0.07600
H1024       H  0.62720116  0.62897323  0.00849640     0.02500
H1025       H  0.64261790  0.64138159  0.04558957     0.02900
H1026       H  0.63603257  0.61856512  0.03535580     0.06400
H1027       H  0.67867100  0.69653611  0.05271604     0.05400
H1028       H  0.68769750  0.68986868  0.01680185    -0.00300
H1029       H  0.67229777  0.67334889  0.05017489     0.01100
H1030       H  0.61969043  0.66754608  0.91058768     0.04800
H1031       H  0.60946539  0.67517067  0.94082171     0.06700
H1032       H  0.60301694  0.65191243  0.94334863     0.07600
C1033       C  0.89029089  0.60109245  0.77717779    -0.22000
C1034       C  0.87339542  0.59025936  0.76003469     0.10000
C1035       C  0.85760295  0.57893937  0.78107456     0.10400
C1036       C  0.85893617  0.57950427  0.81913593    -0.16900
C1037       C  0.87569438  0.59124875  0.83645889    -0.27300
C1038       C  0.89170425  0.60159785  0.81513983     0.18700
C1039       C  0.87243234  0.59227968  0.72035380     0.12700
C1040       C  0.83930241  0.56684401  0.76336449    -0.11700
H1041       H  0.84669992  0.57145114  0.83543720     0.12900
C1042       C  0.91050206  0.61307022  0.83127935    -0.22500
H1043       H  0.90243041  0.60951401  0.76078214     0.08600
C1044       C  0.87233195  0.60705165  0.70625146     0.04900
C1045       C  0.87207460  0.60901918  0.66858729    -0.19800
C1046       C  0.87182832  0.59653232  0.64438161    -0.12000
C1047       C  0.87156106  0.58144828  0.65869282     0.13600
C1048       C  0.87194037  0.57958914  0.69660251    -0.22500
C1049       C  0.87240771  0.62072540  0.73101556    -0.05600
H1050       H  0.87202222  0.62044709  0.65802636     0.15200
C1051       C  0.87129883  0.56749953  0.63453370    -0.15700
H1052       H  0.87198601  0.56826902  0.70784939     0.09500
H1053       H  0.91658098  0.62763839  0.82475213     0.07300
H1054       H  0.91923951  0.60888771  0.81941811     0.08500
H1055       H  0.91064177  0.61155062  0.86111106     0.07600
H1056       H  0.83959460  0.55697653  0.74511120     0.02500
H1057       H  0.83596593  0.57523369  0.74723095     0.02900
H1058       H  0.82830796  0.55902197  0.78376619     0.06400
H1059       H  0.87198577  0.63127127  0.71551134     0.05400
H1060       H  0.88495972  0.62772686  0.74769286    -0.00300
H1061       H  0.86032174  0.61367595  0.74923158     0.01100
H1062       H  0.87175776  0.55709415  0.65051139     0.04800
H1063       H  0.88331473  0.57427880  0.61611781     0.06700
H1064       H  0.85858849  0.56026218  0.61834110     0.07600
C1065       C  0.82389961  0.63446100  0.95822035    -0.22000
C1066       C  0.80581543  0.61935588  0.95776440     0.10000
C1067       C  0.80218880  0.60166985  0.95689371     0.10400
C1068       C  0.81672765  0.59946545  0.95646024    -0.16900
C1069       C  0.83495913  0.61449637  0.95640076    -0.27300
C1070       C  0.83858306  0.63233802  0.95703947     0.18700
C1071       C  0.79069474  0.62208804  0.95615159     0.12700
C1072       C  0.78292273  0.58507899  0.95601581    -0.11700
H1073       H  0.81377920  0.58579172  0.95605577     0.12900
C1074       C  0.85744024  0.64948698  0.95453170    -0.22500
H1075       H  0.82656990  0.64802889  0.95837159     0.08600
C1076       C  0.78175951  0.62229933  0.98784323     0.04900
C1077       C  0.76566201  0.62187773  0.98462067    -0.19800
C1078       C  0.75831457  0.62116335  0.95038743    -0.12000
C1079       C  0.76814665  0.62247380  0.91869633     0.13600
C1080       C  0.78411188  0.62272245  0.92201550    -0.22500
C1081       C  0.78890795  0.62235767  0.02494021    -0.05600
H1082       H  0.75823814  0.62103549  0.00891930     0.15200
C1083       C  0.76233776  0.62381816  0.88103932    -0.15700
H1084       H  0.79122773  0.62291950  0.89772957     0.09500
H1085       H  0.86048324  0.65752746  0.97986177     0.07300
H1086       H  0.85805809  0.65781381  0.93126406     0.08500
H1087       H  0.86828126  0.64705152  0.94991199     0.07600
H1088       H  0.77591762  0.58543622  0.93138383     0.02500
H1089       H  0.77539461  0.58479288  0.98052808     0.02900
H1090       H  0.78248875  0.57225803  0.95541237     0.06400
H1091       H  0.78029443  0.62247836  0.04688839     0.05400
H1092       H  0.80292301  0.63467289  0.02796055    -0.00300
H1093       H  0.78920256  0.61003467  0.02845860     0.01100
H1094       H  0.77367225  0.63625643  0.86747002     0.04800
H1095       H  0.75040475  0.62487271  0.88102474     0.06700
H1096       H  0.75903300  0.61171917  0.86487213     0.07600
C1097       C  0.06757759  0.68178696  0.27999602    -0.22000
C1098       C  0.08097180  0.67981339  0.26488038     0.10000
C1099       C  0.09245725  0.67781888  0.28798959     0.10400
C1100       C  0.09084676  0.67873329  0.32586572    -0.16900
C1101       C  0.07802471  0.68165220  0.34109898    -0.27300
C1102       C  0.06566013  0.68233165  0.31776170     0.18700
C1103       C  0.08323788  0.68085929  0.22478155     0.12700
C1104       C  0.10662470  0.67511110  0.27258487    -0.11700
H1105       H  0.10017452  0.67795620  0.34355816     0.12900
C1106       C  0.04997637  0.68313381  0.33142073    -0.22500
H1107       H  0.05852597  0.68292261  0.26210321     0.08600
C1108       C  0.07246386  0.66558239  0.20228446     0.04900
C1109       C  0.07440454  0.66764745  0.16432926    -0.19800
C1110       C  0.08646215  0.68477637  0.14826639    -0.12000
C1111       C  0.09739852  0.70007614  0.17108941     0.13600
C1112       C  0.09573443  0.69783041  0.20900858    -0.22500
C1113       C  0.05869455  0.64720572  0.21837061    -0.05600
H1114       H  0.06593189  0.65592631  0.14709958     0.15200
C1115       C  0.11095301  0.71880142  0.15596659    -0.15700
H1116       H  0.10391541  0.70948861  0.22658710     0.09500
H1117       H  0.03717388  0.67210440  0.31848532     0.07300
H1118       H  0.05226868  0.69645594  0.32408298     0.08500
H1119       H  0.04776224  0.68103656  0.36110562     0.07600
H1120       H  0.11636248  0.68695850  0.25539093     0.02500
H1121       H  0.09993548  0.66255859  0.25578961     0.02900
H1122       H  0.11443964  0.67370642  0.29434960     0.06400
H1123       H  0.05137373  0.63668193  0.19701501     0.05400
H1124       H  0.04846983  0.64798771  0.23443370    -0.00300
H1125       H  0.06563462  0.64283409  0.23640287     0.01100
H1126       H  0.10376512  0.72397394  0.14123478     0.04800
H1127       H  0.12057506  0.71827546  0.13731542     0.06700
H1128       H  0.11905911  0.72875545  0.17779700     0.07600
C1129       C  0.99406385  0.64637111  0.02290232    -0.22000
C1130       C  0.98993385  0.65621685  0.99993276     0.10000
C1131       C  0.00417043  0.67280573  0.98486192     0.10400
C1132       C  0.02231839  0.67889443  0.99214480    -0.16900
C1133       C  0.02664204  0.66876736  0.01413802    -0.27300
C1134       C  0.01218571  0.65237498  0.03030352     0.18700
C1135       C  0.97057493  0.64832277  0.99076405     0.12700
C1136       C  0.00018422  0.68403256  0.96101911    -0.11700
H1137       H  0.03319452  0.69152748  0.98000258     0.12900
C1138       C  0.01553727  0.64114219  0.05567988    -0.22500
H1139       H  0.98297474  0.63370852  0.03458969     0.08600
C1140       C  0.96243841  0.63669934  0.96058100     0.04900
C1141       C  0.94377348  0.62837772  0.95428059    -0.19800
C1142       C  0.93292164  0.63124274  0.97756967    -0.12000
C1143       C  0.94115355  0.64300931  0.00786876     0.13600
C1144       C  0.95993444  0.65151853  0.01379329    -0.22500
C1145       C  0.97338377  0.63275707  0.93546161    -0.05600
H1146       H  0.93754137  0.61938024  0.93113740     0.15200
C1147       C  0.93063597  0.64619879  0.03575017    -0.15700
H1148       H  0.96622806  0.66027097  0.03723936     0.09500
H1149       H  0.02241801  0.63558763  0.04090309     0.07300
H1150       H  0.00263335  0.62937618  0.06702162     0.08500
H1151       H  0.02404472  0.64965211  0.07885533     0.07600
H1152       H  0.99201190  0.68793025  0.97646545     0.02500
H1153       H  0.99241259  0.67607495  0.93674578     0.02900
H1154       H  0.01287206  0.69669755  0.95154426     0.06400
H1155       H  0.96490029  0.62331456  0.91325882     0.05400
H1156       H  0.97921300  0.62638249  0.95096979    -0.00300
H1157       H  0.98463073  0.64557996  0.92290019     0.01100
H1158       H  0.93283617  0.64244856  0.06308046     0.04800
H1159       H  0.91578283  0.63807011  0.03115133     0.06700
H1160       H  0.93561471  0.66084300  0.03590535     0.07600
C1161       C  0.58328080  0.86346848  0.27027622    -0.22000
C1162       C  0.59203676  0.87997754  0.25112474     0.10000
C1163       C  0.60038607  0.89654860  0.27040681     0.10400
C1164       C  0.60061452  0.89628398  0.30850399    -0.16900
C1165       C  0.59232182  0.87982271  0.32779214    -0.27300
C1166       C  0.58333024  0.86313819  0.30845533     0.18700
C1167       C  0.59355380  0.87972145  0.21101320     0.12700
C1168       C  0.60906173  0.91449640  0.25075975    -0.11700
H1169       H  0.60739130  0.90902178  0.32338688     0.12900
C1170       C  0.57452053  0.84483328  0.32679550    -0.22500
H1171       H  0.57692089  0.85077825  0.25529235     0.08600
C1172       C  0.60916857  0.88209244  0.19448788     0.04900
C1173       C  0.61045990  0.88239519  0.15648615    -0.19800
C1174       C  0.59636315  0.88002728  0.13426573    -0.12000
C1175       C  0.58050038  0.87730379  0.15106289     0.13600
C1176       C  0.57936333  0.87724094  0.18926899    -0.22500
C1177       C  0.62439725  0.88405882  0.21699267    -0.05600
H1178       H  0.62257246  0.88432410  0.14408700     0.15200
C1179       C  0.56488618  0.87484669  0.12925490    -0.15700
H1180       H  0.56740100  0.87536877  0.20233063     0.09500
H1181       H  0.58091631  0.83776631  0.31669911     0.07300
H1182       H  0.55978806  0.83641344  0.32016539     0.08500
H1183       H  0.57590712  0.84571413  0.35671603     0.07600
H1184       H  0.59868894  0.91454216  0.23391391     0.02500
H1185       H  0.62024937  0.91665141  0.23288748     0.02900
H1186       H  0.61482903  0.92612401  0.26999178     0.06400
H1187       H  0.63554728  0.88563706  0.19973839     0.05400
H1188       H  0.61907691  0.87175724  0.23416865    -0.00300
H1189       H  0.63027379  0.89620798  0.23477386     0.01100
H1190       H  0.55873437  0.86226962  0.11265227     0.04800
H1191       H  0.56979419  0.88683079  0.11132824     0.06700
H1192       H  0.55397923  0.87350216  0.14698302     0.07600
C1193       C  0.63659231  0.79618887  0.97780402    -0.22000
C1194       C  0.63435454  0.80379011  0.00916928     0.10000
C1195       C  0.63032694  0.79443017  0.04252278     0.10400
C1196       C  0.62789053  0.77731941  0.04342631    -0.16900
C1197       C  0.62877306  0.76899782  0.01160007    -0.27300
C1198       C  0.63352021  0.77875411  0.97829776     0.18700
C1199       C  0.63158968  0.81878521  0.00500987     0.12700
C1200       C  0.62732503  0.80190210  0.07670667    -0.11700
H1201       H  0.62423078  0.76990471  0.06889397     0.12900
C1202       C  0.63386859  0.77087171  0.94213687    -0.22500
H1203       H  0.63921623  0.80324767  0.95210316     0.08600
C1204       C  0.64519426  0.83718981  0.01232378     0.04900
C1205       C  0.64057159  0.85013124  0.01216948    -0.19800
C1206       C  0.62262113  0.84491867  0.00513436    -0.12000
C1207       C  0.60937380  0.82657684  0.99559590     0.13600
C1208       C  0.61409059  0.81384629  0.99563414    -0.22500
C1209       C  0.66442874  0.84306769  0.02031791    -0.05600
H1210       H  0.65083925  0.86420953  0.01875004     0.15200
C1211       C  0.59023083  0.82018438  0.98489398    -0.15700
H1212       H  0.60384038  0.79969283  0.98944897     0.09500
H1213       H  0.64778116  0.77926061  0.93032242     0.07300
H1214       H  0.62422503  0.77114461  0.92330810     0.08500
H1215       H  0.62987757  0.75661778  0.94349273     0.07600
H1216       H  0.61585193  0.80355598  0.07284843     0.02500
H1217       H  0.63980212  0.81531635  0.08338951     0.02900
H1218       H  0.62398253  0.79270596  0.10029075     0.06400
H1219       H  0.67341776  0.85797195  0.02519683     0.05400
H1220       H  0.66998200  0.83967306  0.99686619    -0.00300
H1221       H  0.66474114  0.83595706  0.04482465     0.01100
H1222       H  0.58235945  0.80583104  0.97536262     0.04800
H1223       H  0.59063668  0.82873782  0.96237550     0.06700
H1224       H  0.58276529  0.82085257  0.00849769     0.07600
C1225       C  0.69808995  0.10623989  0.77896810    -0.22000
C1226       C  0.68134874  0.09257754  0.76419925     0.10000
C1227       C  0.66706578  0.08005163  0.78740994     0.10400
C1228       C  0.66996811  0.08132162  0.82508574    -0.16900
C1229       C  0.68695193  0.09459948  0.83985419    -0.27300
C1230       C  0.70108032  0.10751976  0.81654527     0.18700
C1231       C  0.67975691  0.09074376  0.72420474     0.12700
C1232       C  0.64894030  0.06517311  0.77230239    -0.11700
H1233       H  0.65915449  0.07148052  0.84298606     0.12900
C1234       C  0.71930965  0.12305587  0.83014345    -0.22500
H1235       H  0.70899594  0.11585425  0.76093700     0.08600
C1236       C  0.67581593  0.10131563  0.70265560     0.04900
C1237       C  0.67588718  0.09990281  0.66458764    -0.19800
C1238       C  0.68026776  0.08847683  0.64766068    -0.12000
C1239       C  0.68377588  0.07755068  0.66968962     0.13600
C1240       C  0.68335597  0.07880114  0.70760261    -0.22500
C1241       C  0.67184764  0.11425257  0.71989648    -0.05600
H1242       H  0.67317867  0.10827577  0.64800877     0.15200
C1243       C  0.68793731  0.06445525  0.65384745    -0.15700
H1244       H  0.68632742  0.07073383  0.72457248     0.09500
H1245       H  0.72187015  0.13613564  0.82002343     0.07300
H1246       H  0.73021495  0.12152362  0.81971917     0.08500
H1247       H  0.72020965  0.12403575  0.86013313     0.07600
H1248       H  0.65077797  0.05625772  0.75409941     0.02500
H1249       H  0.64287935  0.07127331  0.75663706     0.02900
H1250       H  0.63923212  0.05656153  0.79418971     0.06400
H1251       H  0.66894169  0.12144966  0.69920656     0.05400
H1252       H  0.68376156  0.12463706  0.73602930    -0.00300
H1253       H  0.65980701  0.10660515  0.73809541     0.01100
H1254       H  0.68893666  0.05618590  0.67523141     0.04800
H1255       H  0.70121784  0.07205107  0.63936937     0.06700
H1256       H  0.67694260  0.05491158  0.63493068     0.07600
C1257       C  0.63928467  0.97063003  0.01639144    -0.22000
C1258       C  0.65466889  0.97985180  0.99398944     0.10000
C1259       C  0.66146157  0.97031150  0.97765246     0.10400
C1260       C  0.65222861  0.95143536  0.98315930    -0.16900
C1261       C  0.63623161  0.94191962  0.00425605    -0.27300
C1262       C  0.62991606  0.95179226  0.02178187     0.18700
C1263       C  0.66273265  0.99934369  0.98662963     0.12700
C1264       C  0.67817117  0.98001967  0.95381636    -0.11700
H1265       H  0.65724279  0.94401368  0.97006374     0.12900
C1266       C  0.61352307  0.94280046  0.04666048    -0.22500
H1267       H  0.63435703  0.97822776  0.02906831     0.08600
C1268       C  0.65486598  0.00478381  0.96094559     0.04900
C1269       C  0.66211610  0.02334634  0.95634089    -0.19800
C1270       C  0.67715796  0.03665586  0.97661024    -0.12000
C1271       C  0.68522642  0.03114557  0.00202727     0.13600
C1272       C  0.67780543  0.01248514  0.00679512    -0.22500
C1273       C  0.63882655  0.99097643  0.93836867    -0.05600
H1274       H  0.65599929  0.02748514  0.93662194     0.15200
C1275       C  0.70119286  0.04467923  0.02505504    -0.15700
H1276       H  0.68362167  0.00806722  0.02663501     0.09500
H1277       H  0.61153162  0.95291306  0.05984398     0.07300
H1278       H  0.61529894  0.93526774  0.06853164     0.08500
H1279       H  0.60099509  0.93336190  0.03100732     0.07600
H1280       H  0.68997152  0.99073120  0.96972882     0.02500
H1281       H  0.67583562  0.98644228  0.93050849     0.02900
H1282       H  0.68161785  0.97053907  0.94290794     0.06400
H1283       H  0.63454250  0.99757926  0.91910853     0.05400
H1284       H  0.62706036  0.98179542  0.95628895    -0.00300
H1285       H  0.64249011  0.98276874  0.92235475     0.01100
H1286       H  0.70506683  0.03782426  0.04460161     0.04800
H1287       H  0.69769290  0.05306310  0.04089989     0.06700
H1288       H  0.71321648  0.05360883  0.00751711     0.07600
C1289       C  0.09761237  0.37545541  0.28756083    -0.22000
C1290       C  0.09022894  0.38457242  0.27266382     0.10000
C1291       C  0.08363600  0.39240729  0.29594465     0.10400
C1292       C  0.08385719  0.39021138  0.33374493    -0.16900
C1293       C  0.09057727  0.38040245  0.34868448    -0.27300
C1294       C  0.09832937  0.37366978  0.32523037     0.18700
C1295       C  0.08901509  0.38500346  0.23255121     0.12700
C1296       C  0.07633714  0.40298597  0.28087279    -0.11700
H1297       H  0.07821171  0.39566776  0.35162833     0.12900
C1298       C  0.10807965  0.36514672  0.33866945    -0.22500
H1299       H  0.10299518  0.36977044  0.26955065     0.08600
C1300       C  0.10454628  0.39622736  0.21073073     0.04900
C1301       C  0.10307574  0.39439774  0.17275514    -0.19800
C1302       C  0.08648078  0.38141679  0.15619093    -0.12000
C1303       C  0.07067730  0.37097601  0.17809208     0.13600
C1304       C  0.07222939  0.37278046  0.21600819    -0.22500
C1305       C  0.12270649  0.40987796  0.22756665    -0.05600
H1306       H  0.11514176  0.40252567  0.15603458     0.15200
C1307       C  0.05192049  0.35804461  0.16266573    -0.15700
H1308       H  0.06028392  0.36434172  0.23288223     0.09500
H1309       H  0.12186067  0.37227251  0.32615276     0.07300
H1310       H  0.10037192  0.35057764  0.33065820     0.08500
H1311       H  0.11012592  0.36620688  0.36843653     0.07600
H1312       H  0.06437139  0.39404171  0.26340261     0.02500
H1313       H  0.08706496  0.41462015  0.26446897     0.02900
H1314       H  0.07201508  0.40847931  0.30282483     0.06400
H1315       H  0.13336954  0.41777508  0.20660837     0.05400
H1316       H  0.12719872  0.40279243  0.24483429    -0.00300
H1317       H  0.12152820  0.41960387  0.24451573     0.01100
H1318       H  0.04683109  0.34388515  0.17093411     0.04800
H1319       H  0.05144462  0.35864740  0.13268803     0.06700
H1320       H  0.04250630  0.36159910  0.17349744     0.07600
C1321       C  0.18095377  0.35958815  0.99788376    -0.22000
C1322       C  0.16735074  0.34494822  0.01845707     0.10000
C1323       C  0.17058555  0.33227958  0.03334795     0.10400
C1324       C  0.18806391  0.33554797  0.03006628    -0.16900
C1325       C  0.20213014  0.35102511  0.01168484    -0.27300
C1326       C  0.19816858  0.36258532  0.99360201     0.18700
C1327       C  0.15050286  0.34430835  0.02573512     0.12700
C1328       C  0.15567214  0.31545993  0.05266112    -0.11700
H1329       H  0.19096198  0.32646054  0.04326356     0.12900
C1330       C  0.21160909  0.37806678  0.96918850    -0.22500
H1331       H  0.17819602  0.36896895  0.98554030     0.08600
C1332       C  0.14903730  0.35268640  0.05700129     0.04900
C1333       C  0.13486222  0.35538048  0.05950399    -0.19800
C1334       C  0.12236389  0.35041761  0.03112410    -0.12000
C1335       C  0.12356226  0.34154536  0.00005182     0.13600
C1336       C  0.13751391  0.33840062  0.99814471    -0.22500
C1337       C  0.16305554  0.35982765  0.08679152    -0.05600
H1338       H  0.13399026  0.36214982  0.08326957     0.15200
C1339       C  0.11154532  0.33641752  0.96712555    -0.10900
H1340       H  0.13899647  0.33235662  0.97383328     0.09500
H1341       H  0.21529246  0.39123189  0.98125507     0.07300
H1342       H  0.20528376  0.37651398  0.94224413     0.08500
H1343       H  0.22419225  0.37844181  0.96414873     0.07600
H1344       H  0.14418630  0.30715086  0.03369465     0.02500
H1345       H  0.15063614  0.31920276  0.07640347     0.02900
H1346       H  0.16047743  0.30693249  0.06248117     0.06400
H1347       H  0.16003640  0.36639297  0.10886483     0.05400
H1348       H  0.17672296  0.37012910  0.07556120    -0.00300
H1349       H  0.16338284  0.34854401  0.09899268     0.01100
H1350       H  0.12016507  0.34318545  0.94271413     0.04800
H1351       H  0.10178980  0.34048682  0.96866892     0.06700
H1352       H  0.10376043  0.32144004  0.96312036     0.07600
C1353       C  0.88658632  0.28811538  0.78506225    -0.22000
C1354       C  0.87656957  0.29485827  0.77204567     0.10000
C1355       C  0.86843878  0.30053846  0.79672754     0.10400
C1356       C  0.87021305  0.29896308  0.83420872    -0.16900
C1357       C  0.87980651  0.29166472  0.84755428    -0.27300
C1358       C  0.88840398  0.28646838  0.82240867     0.18700
C1359       C  0.87443378  0.29513903  0.73226185     0.12700
C1360       C  0.85784859  0.30814991  0.78345798    -0.11700
H1361       H  0.86369890  0.30308178  0.85312118     0.12900
C1362       C  0.89969324  0.27935029  0.83422250    -0.22500
H1363       H  0.89285284  0.28390370  0.76568343     0.08600
C1364       C  0.88827922  0.30913900  0.71035467     0.04900
C1365       C  0.88691286  0.30737425  0.67235429    -0.19800
C1366       C  0.87213123  0.29177513  0.65599998    -0.12000
C1367       C  0.85767417  0.27833194  0.67807013     0.13600
C1368       C  0.85912184  0.28012637  0.71596575    -0.22500
C1369       C  0.90470418  0.32562898  0.72719673    -0.05600
H1370       H  0.89788995  0.31773124  0.65544596     0.15200
C1371       C  0.84045908  0.26203760  0.66272946    -0.15700
H1372       H  0.84841565  0.26951362  0.73297950     0.09500
H1373       H  0.91073687  0.28933496  0.85256551     0.07300
H1374       H  0.90618810  0.27710994  0.81075257     0.08500
H1375       H  0.89097287  0.26605176  0.84822095     0.07600
H1376       H  0.84614287  0.29778481  0.76686693     0.02500
H1377       H  0.86679785  0.32043100  0.76657285     0.02900
H1378       H  0.85247958  0.31209798  0.80634905     0.06400
H1379       H  0.91422299  0.33535720  0.70624669     0.05400
H1380       H  0.91217918  0.32141241  0.74396886    -0.00300
H1381       H  0.90031623  0.33279685  0.74469391     0.01100
H1382       H  0.83936436  0.24935742  0.67089524     0.04800
H1383       H  0.83971823  0.26233917  0.63273376     0.06700
H1384       H  0.82850912  0.26166121  0.67369033     0.07600
C1385       C  0.96151274  0.29948116  0.98320573    -0.22000
C1386       C  0.97275667  0.31700703  0.99763288     0.10000
C1387       C  0.96552764  0.32741119  0.00565537     0.10400
C1388       C  0.94708100  0.32000596  0.99897328    -0.16900
C1389       C  0.93568420  0.30241616  0.98454719    -0.27300
C1390       C  0.94309202  0.29208166  0.97598795     0.18700
C1391       C  0.99226842  0.32453191  0.00286521     0.12700
C1392       C  0.97724398  0.34622517  0.02168844    -0.11700
H1393       H  0.94146916  0.32794304  0.00542530     0.12900
C1394       C  0.93252606  0.27372597  0.95757659    -0.22500
H1395       H  0.96730265  0.29171468  0.97660496     0.08600
C1396       C  0.99851746  0.32002160  0.03350470     0.04900
C1397       C  0.01728175  0.32817421  0.03790563    -0.19800
C1398       C  0.02984950  0.34089456  0.01258772    -0.12000
C1399       C  0.02347256  0.34492739  0.98122937     0.13600
C1400       C  0.00472475  0.33671249  0.97690735    -0.22500
C1401       C  0.98542518  0.30708794  0.06201634    -0.05600
H1402       H  0.02220825  0.32516123  0.06194597     0.15200
C1403       C  0.03587342  0.35741862  0.95136417    -0.15700
H1404       H  0.99975540  0.33989217  0.95315505     0.09500
H1405       H  0.93127545  0.26320699  0.97622618     0.07300
H1406       H  0.93995275  0.27415625  0.93273294     0.08500
H1407       H  0.91878577  0.26950683  0.94865850     0.07600
H1408       H  0.98851663  0.35529976  0.00268560     0.02500
H1409       H  0.98303636  0.34553366  0.04786516     0.02900
H1410       H  0.96934726  0.35236124  0.02693855     0.06400
H1411       H  0.99261101  0.30531065  0.08459587     0.05400
H1412       H  0.97579885  0.29352871  0.04971289    -0.00300
H1413       H  0.97763310  0.31243374  0.07358004     0.01100
H1414       H  0.03150792  0.35005213  0.92502901     0.04800
H1415       H  0.05030011  0.36219591  0.95517868     0.06700
H1416       H  0.03497278  0.36945694  0.94961593     0.07600
C1417       C  0.81754368  0.19429824  0.98840778    -0.22000
C1418       C  0.80396403  0.18922582  0.96253368     0.10000
C1419       C  0.80654575  0.20161279  0.93521198     0.10400
C1420       C  0.82238687  0.21919070  0.93533204    -0.16900
C1421       C  0.83571948  0.22475805  0.96224674    -0.27300
C1422       C  0.83349072  0.21194986  0.98863037     0.18700
C1423       C  0.78629834  0.17163800  0.96646043     0.12700
C1424       C  0.79239792  0.19637464  0.90632471    -0.11700
H1425       H  0.82413895  0.22878789  0.91468280     0.12900
C1426       C  0.84731869  0.21686669  0.01800779    -0.22500
H1427       H  0.81532793  0.18459103  0.00923919     0.08600
C1428       C  0.78320563  0.15533176  0.95215825     0.04900
C1429       C  0.76548885  0.13951499  0.95294680    -0.19800
C1430       C  0.75087469  0.13991775  0.96691992    -0.12000
C1431       C  0.75426139  0.15613051  0.98290778     0.13600
C1432       C  0.77199791  0.17174817  0.98266988    -0.22500
C1433       C  0.79845524  0.15484436  0.93505982    -0.05600
H1434       H  0.76290053  0.12703463  0.94109370     0.15200
C1435       C  0.73935655  0.15710621  0.00055664    -0.15700
H1436       H  0.77466198  0.18436518  0.99398110     0.09500
H1437       H  0.86051151  0.22078202  0.00563282     0.07300
H1438       H  0.84300528  0.20525205  0.03666458     0.08500
H1439       H  0.84914639  0.22831715  0.03449709     0.07600
H1440       H  0.77941430  0.19291501  0.91900439     0.02500
H1441       H  0.79003789  0.18439419  0.89101827     0.02900
H1442       H  0.79672563  0.20762482  0.88667528     0.06400
H1443       H  0.79368634  0.14102024  0.92494336     0.05400
H1444       H  0.80930939  0.15887488  0.95539470    -0.00300
H1445       H  0.80424775  0.16444391  0.91174900     0.01100
H1446       H  0.74481916  0.17046506  0.01394677     0.04800
H1447       H  0.73231295  0.14633238  0.02161630     0.06700
H1448       H  0.72941616  0.15538545  0.97988903     0.07600
C1449       C  0.26152406  0.87981032  0.20994718    -0.22000
C1450       C  0.27679182  0.88091336  0.22404947     0.10000
C1451       C  0.28998425  0.88221701  0.20017115     0.10400
C1452       C  0.28773785  0.88269510  0.16246568    -0.16900
C1453       C  0.27255058  0.88187532  0.14799872    -0.27300
C1454       C  0.25914122  0.88021220  0.17234555     0.18700
C1455       C  0.27860023  0.88091200  0.26408404     0.12700
C1456       C  0.30642318  0.88316620  0.21457923    -0.11700
H1457       H  0.29799808  0.88383697  0.14422121     0.12900
C1458       C  0.24203565  0.87840718  0.15933294    -0.22500
H1459       H  0.25140961  0.87867054  0.22865815     0.08600
C1460       C  0.28555508  0.89701109  0.28445576     0.04900
C1461       C  0.28504489  0.89608470  0.32252236    -0.19800
C1462       C  0.27776329  0.87944423  0.34067991    -0.12000
C1463       C  0.27118142  0.86334797  0.32027387     0.13600
C1464       C  0.27178710  0.86433242  0.28213339    -0.22500
C1465       C  0.29315494  0.91508977  0.26598528    -0.05600
H1466       H  0.28996158  0.90836202  0.33826814     0.15200
C1467       C  0.26250475  0.84482806  0.33756344    -0.15700
H1468       H  0.26627979  0.85196769  0.26633143     0.09500
H1469       H  0.24552709  0.89100320  0.14495136     0.07300
H1470       H  0.23280953  0.87632655  0.18221691     0.08500
H1471       H  0.23443053  0.86647822  0.14095936     0.07600
H1472       H  0.30201509  0.87070190  0.23056764     0.02500
H1473       H  0.31437142  0.89528520  0.23234729     0.02900
H1474       H  0.31548973  0.88420785  0.19230005     0.06400
H1475       H  0.29816426  0.92634376  0.28593911     0.05400
H1476       H  0.28243452  0.91459692  0.24935407    -0.00300
H1477       H  0.30472038  0.91822651  0.24810837     0.01100
H1478       H  0.24826972  0.83579712  0.32786191     0.04800
H1479       H  0.26208794  0.84517767  0.36760717     0.06700
H1480       H  0.27021855  0.83879038  0.32964288     0.07600
C1481       C  0.18188028  0.81347539  0.99065925    -0.22000
C1482       C  0.17669161  0.80051616  0.01817886     0.10000
C1483       C  0.18845459  0.80446705  0.04765551     0.10400
C1484       C  0.20534095  0.82120468  0.04864275    -0.16900
C1485       C  0.21092390  0.83411274  0.02068761    -0.27300
C1486       C  0.19896214  0.83017104  0.99115445     0.18700
C1487       C  0.15973085  0.78219247  0.01417474     0.12700
C1488       C  0.18330382  0.79085726  0.07777336    -0.11700
H1489       H  0.21439234  0.82413832  0.07128257     0.12900
C1490       C  0.20390842  0.84242470  0.95856389    -0.22500
H1491       H  0.17284143  0.81020126  0.96782408     0.08600
C1492       C  0.14292130  0.77793712  0.02825645     0.04900
C1493       C  0.12780157  0.75978305  0.02747813    -0.19800
C1494       C  0.12915800  0.74587120  0.01270762    -0.12000
C1495       C  0.14570869  0.75051812  0.99591523     0.13600
C1496       C  0.16085530  0.76855933  0.99757973    -0.22500
C1497       C  0.14110329  0.79247761  0.04476729    -0.05600
H1498       H  0.11508587  0.75633610  0.03980479     0.15200
C1499       C  0.14787894  0.73707593  0.97511895    -0.15700
H1500       H  0.17372866  0.77203137  0.98598597     0.09500
H1501       H  0.19458055  0.84712357  0.95698288     0.07300
H1502       H  0.20235889  0.83466694  0.93348598     0.08500
H1503       H  0.21807137  0.85447314  0.95869379     0.07600
H1504       H  0.18119287  0.77813589  0.06654554     0.02500
H1505       H  0.17054046  0.78766870  0.09108635     0.02900
H1506       H  0.19405592  0.79613982  0.09883513     0.06400
H1507       H  0.12701756  0.78685338  0.05455984     0.05400
H1508       H  0.14457153  0.80310473  0.02411349    -0.00300
H1509       H  0.15048221  0.79883143  0.06817525     0.01100
H1510       H  0.15329196  0.74255601  0.94752718     0.04800
H1511       H  0.13490961  0.72371387  0.97118245     0.06700
H1512       H  0.15766188  0.73502539  0.98938791     0.07600
C1513       C  0.37872384  0.08573121  0.77704075    -0.22000
C1514       C  0.36863477  0.08984036  0.75479021     0.10000
C1515       C  0.35717350  0.09447844  0.77066270     0.10400
C1516       C  0.35562330  0.09438734  0.80855266    -0.16900
C1517       C  0.36547362  0.09004155  0.83112752    -0.27300
C1518       C  0.37725224  0.08565885  0.81511382     0.18700
C1519       C  0.36939492  0.08839013  0.71484825     0.12700
C1520       C  0.34669682  0.09968877  0.74754011    -0.11700
H1521       H  0.34675567  0.09791682  0.82068198     0.12900
C1522       C  0.38780715  0.07999168  0.83668686    -0.22500
H1523       H  0.38744186  0.08209368  0.76457164     0.08600
C1524       C  0.38292308  0.10299053  0.69359331     0.04900
C1525       C  0.38146993  0.10186090  0.65556365    -0.19800
C1526       C  0.36679873  0.08642834  0.63844228    -0.12000
C1527       C  0.35408213  0.07119815  0.65989850     0.13600
C1528       C  0.35539600  0.07253959  0.69785618    -0.22500
C1529       C  0.39850750  0.11994012  0.71111269    -0.05600
H1530       H  0.39139414  0.11341598  0.63921770     0.15200
C1531       C  0.33925598  0.05319093  0.64401312    -0.15700
H1532       H  0.34527070  0.06119552  0.71441700     0.09500
H1533       H  0.40262599  0.09016371  0.83278792     0.07300
H1534       H  0.38442543  0.06655431  0.82682078     0.08500
H1535       H  0.38473255  0.07846435  0.86609397     0.07600
H1536       H  0.33718272  0.08817952  0.72954425     0.02500
H1537       H  0.35631595  0.11172075  0.73061627     0.02900
H1538       H  0.33859112  0.10322279  0.76432803     0.06400
H1539       H  0.40782258  0.13014539  0.69056692     0.05400
H1540       H  0.40649241  0.11638712  0.72801953    -0.00300
H1541       H  0.39319143  0.12626953  0.72859222     0.01100
H1542       H  0.34012091  0.04211301  0.65578106     0.04800
H1543       H  0.34038375  0.05242706  0.61421095     0.06700
H1544       H  0.32573264  0.05057342  0.65082435     0.07600
C1545       C  0.33685250  0.15138155  0.98735994    -0.22000
C1546       C  0.34033072  0.16178463  0.95592255     0.10000
C1547       C  0.34415132  0.15639332  0.92292826     0.10400
C1548       C  0.34510475  0.14106967  0.92240075    -0.16900
C1549       C  0.34240482  0.13101955  0.95409821    -0.27300
C1550       C  0.33794126  0.13608077  0.98703457     0.18700
C1551       C  0.34231526  0.17953112  0.95887588     0.12700
C1552       C  0.34780851  0.16717133  0.88852880    -0.11700
H1553       H  0.34854234  0.13721324  0.89723632     0.12900
C1554       C  0.33544881  0.12663093  0.02280099    -0.22500
H1555       H  0.33414400  0.15575886  0.01271856     0.08600
C1556       C  0.32765739  0.18141002  0.95316329     0.04900
C1557       C  0.33092124  0.19893983  0.95286099    -0.19800
C1558       C  0.34852747  0.21452866  0.95826242    -0.12000
C1559       C  0.36291564  0.21238690  0.96665596     0.13600
C1560       C  0.35965121  0.19494836  0.96611544    -0.22500
C1561       C  0.30873524  0.16495743  0.94674426    -0.05600
H1562       H  0.31984370  0.20051330  0.94702983     0.15200
C1563       C  0.38176715  0.22798065  0.97733082    -0.15700
H1564       H  0.37077159  0.19334098  0.97132489     0.09500
H1565       H  0.32147960  0.12100295  0.03329580     0.07300
H1566       H  0.34541045  0.13662416  0.04275917     0.08500
H1567       H  0.33751464  0.11539398  0.02112266     0.07600
H1568       H  0.35985024  0.18129769  0.89219907     0.02500
H1569       H  0.33580347  0.16758501  0.88178822     0.02900
H1570       H  0.35056724  0.16105816  0.86512854     0.06400
H1571       H  0.29880720  0.16878239  0.94275433     0.05400
H1572       H  0.30425189  0.15568508  0.97053615    -0.00300
H1573       H  0.30860077  0.15759028  0.92214226     0.01100
H1574       H  0.38556888  0.22469755  0.00346510     0.04800
H1575       H  0.38286392  0.24096473  0.98171647     0.06700
H1576       H  0.39172981  0.22999071  0.95615568     0.07600
C1577       C  0.28342841  0.96238180  0.97530188    -0.22000
C1578       C  0.30058021  0.97585088  0.98877003     0.10000
C1579       C  0.31042540  0.97082263  0.00974831     0.10400
C1580       C  0.30292706  0.95233491  0.01658519    -0.16900
C1581       C  0.28569164  0.93863476  0.00325434    -0.27300
C1582       C  0.27577937  0.94381082  0.98230490     0.18700
C1583       C  0.30819116  0.99521237  0.98039715     0.12700
C1584       C  0.32885641  0.98500604  0.02494350    -0.11700
H1585       H  0.31060703  0.94859582  0.03277126     0.12900
C1586       C  0.25735977  0.93000758  0.96658404    -0.22500
H1587       H  0.27603926  0.96646500  0.95911848     0.08600
C1588       C  0.31940245  0.00373775  0.94974542     0.04900
C1589       C  0.32770378  0.02248563  0.94467929    -0.19800
C1590       C  0.32495868  0.03292444  0.96935823    -0.12000
C1591       C  0.31334727  0.02424408  0.99977614     0.13600
C1592       C  0.30501385  0.00542638  0.00467913    -0.22500
C1593       C  0.32273532  0.99307609  0.92260239    -0.05600
H1594       H  0.33651806  0.02909079  0.92133095     0.15200
C1595       C  0.31012812  0.03429016  0.02871317    -0.15700
H1596       H  0.29645851  0.99876815  0.02830783     0.09500
H1597       H  0.25831531  0.92038669  0.94880451     0.07300
H1598       H  0.25205286  0.93655441  0.94991342     0.08500
H1599       H  0.24740202  0.92243218  0.98880760     0.07600
H1600       H  0.32765070  0.99433276  0.04315972     0.02500
H1601       H  0.33844759  0.99301770  0.00247537     0.02900
H1602       H  0.33470819  0.97876153  0.04086385     0.06400
H1603       H  0.33182866  0.00185341  0.90013619     0.05400
H1604       H  0.30959614  0.98213074  0.91062566    -0.00300
H1605       H  0.32921772  0.98685348  0.93618415     0.01100
H1606       H  0.29544162  0.02911326  0.02958263     0.04800
H1607       H  0.31804936  0.04919620  0.02460805     0.06700
H1608       H  0.31409449  0.03184980  0.05556495     0.07600
C1609       C  0.43346356  0.31086636  0.05403506    -0.22000
C1610       C  0.42875519  0.29935699  0.08415975     0.10000
C1611       C  0.41106224  0.28346385  0.08678962     0.10400
C1612       C  0.39847626  0.27932591  0.05906001    -0.16900
C1613       C  0.40311066  0.29060995  0.02833965    -0.27300
C1614       C  0.42090821  0.30672011  0.02601271     0.18700
C1615       C  0.44254793  0.30396756  0.11261224     0.12700
C1616       C  0.40557366  0.27070156  0.11864649    -0.11700
H1617       H  0.38498390  0.26693129  0.06117250     0.12900
C1618       C  0.42678473  0.31977052  0.99458500    -0.22500
H1619       H  0.44709831  0.32309804  0.05238785     0.08600
C1620       C  0.45546981  0.29941402  0.10864511     0.04900
C1621       C  0.46761271  0.30316792  0.13711243    -0.19800
C1622       C  0.46664841  0.31068144  0.16999304    -0.12000
C1623       C  0.45428696  0.31605006  0.17325922     0.13600
C1624       C  0.44229776  0.31249684  0.14458317    -0.22500
C1625       C  0.45624273  0.29035141  0.07461801    -0.05600
H1626       H  0.47790961  0.30020330  0.13366326     0.15200
C1627       C  0.45363493  0.32590422  0.20608857    -0.15700
H1628       H  0.43257607  0.31628854  0.14726627     0.09500
H1629       H  0.42669355  0.31301981  0.96904130     0.07300
H1630       H  0.44081394  0.33199119  0.99826596     0.08500
H1631       H  0.41748021  0.32446557  0.99212386     0.07600
H1632       H  0.40676714  0.27796928  0.14422627     0.02500
H1633       H  0.41458058  0.26561579  0.12011698     0.02900
H1634       H  0.39129113  0.25875782  0.11634748     0.06400
H1635       H  0.46699607  0.28749476  0.07615553     0.05400
H1636       H  0.45921628  0.29932341  0.05083183    -0.00300
H1637       H  0.44296937  0.27721795  0.07050228     0.01100
H1638       H  0.45669227  0.33941262  0.19768179     0.04800
H1639       H  0.46357248  0.32821015  0.22725150     0.06700
H1640       H  0.43979817  0.31790284  0.21833369     0.07600
C1641       C  0.42321600  0.30336399  0.39179109    -0.22000
C1642       C  0.42529445  0.28959306  0.37928822     0.10000
C1643       C  0.41441423  0.27193069  0.39407280     0.10400
C1644       C  0.40134829  0.26831393  0.42055845    -0.16900
C1645       C  0.39910969  0.28201155  0.43299888    -0.27300
C1646       C  0.41020378  0.29981048  0.41847750     0.18700
C1647       C  0.43858257  0.29383945  0.34989565     0.12700
C1648       C  0.41653284  0.25691215  0.38172325    -0.11700
H1649       H  0.39286855  0.25470371  0.43183986     0.12900
C1650       C  0.40823182  0.31513123  0.42915048    -0.22500
H1651       H  0.43158825  0.31690110  0.38013395     0.08600
C1652       C  0.43386440  0.29297156  0.31304737     0.04900
C1653       C  0.44705505  0.29765474  0.28609742    -0.19800
C1654       C  0.46482938  0.30315532  0.29515862    -0.12000
C1655       C  0.46912050  0.30272044  0.33208332     0.13600
C1656       C  0.45604175  0.29849386  0.35902938    -0.22500
C1657       C  0.41492893  0.28714973  0.30224712    -0.05600
H1658       H  0.44354890  0.29735116  0.25784918     0.15200
C1659       C  0.48691943  0.30574446  0.34404320    -0.15700
H1660       H  0.45936867  0.29850647  0.38736238     0.09500
H1661       H  0.40518675  0.32028777  0.40462736     0.07300
H1662       H  0.42118170  0.32641113  0.44114507     0.08500
H1663       H  0.39713528  0.31098180  0.44903580     0.07600
H1664       H  0.43058786  0.26075273  0.38733500     0.02500
H1665       H  0.41389627  0.25460357  0.35211468     0.02900
H1666       H  0.40689510  0.24389282  0.39602239     0.06400
H1667       H  0.41351559  0.28716259  0.27227281     0.05400
H1668       H  0.41168021  0.29660431  0.31411694    -0.00300
H1669       H  0.40491778  0.27314387  0.31233010     0.01100
H1670       H  0.49452708  0.31827634  0.36082592     0.04800
H1671       H  0.49564185  0.30687092  0.32108520     0.06700
H1672       H  0.48414538  0.29396035  0.36065822     0.07600
C1673       C  0.54275996  0.38237516  0.24672175    -0.22000
C1674       C  0.55918786  0.38376178  0.24256402     0.10000
C1675       C  0.55912803  0.36805111  0.23602476     0.10400
C1676       C  0.54247105  0.35113548  0.23372161    -0.16900
C1677       C  0.52558470  0.34936780  0.23745026    -0.27300
C1678       C  0.52599656  0.36561468  0.24361739     0.18700
C1679       C  0.57623436  0.40205984  0.24143693     0.12700
C1680       C  0.57669849  0.36923894  0.23038363    -0.11700
H1681       H  0.54317556  0.33962098  0.22785461     0.12900
C1682       C  0.50936900  0.36643940  0.24637055    -0.22500
H1683       H  0.54303837  0.39469061  0.25115297     0.08600
C1684       C  0.58150637  0.41262660  0.20968119     0.04900
C1685       C  0.59799651  0.42969977  0.20901338    -0.19800
C1686       C  0.60967069  0.43672685  0.23944391    -0.12000
C1687       C  0.60422689  0.42557161  0.27134855     0.13600
C1688       C  0.58748365  0.40860957  0.27186969    -0.22500
C1689       C  0.56987197  0.40563833  0.17599988    -0.05600
H1690       H  0.60163778  0.43691791  0.18369688     0.15200
C1691       C  0.61552391  0.43040716  0.30543716    -0.15700
H1692       H  0.58332838  0.40017393  0.29604888     0.09500
H1693       H  0.51019281  0.37583984  0.22523010     0.07300
H1694       H  0.50904300  0.37179401  0.27348999     0.08500
H1695       H  0.49624295  0.35335082  0.24259255     0.07600
H1696       H  0.58528780  0.37497631  0.25501656     0.02500
H1697       H  0.58420226  0.37816894  0.20676614     0.02900
H1698       H  0.57430232  0.35567849  0.22504628     0.06400
H1699       H  0.57611958  0.41545002  0.15309181     0.05400
H1700       H  0.55635246  0.40324049  0.18176629    -0.00300
H1701       H  0.56801309  0.39266426  0.16719653     0.01100
H1702       H  0.60805137  0.43144587  0.32862716     0.04800
H1703       H  0.62910835  0.44321573  0.30405677     0.06700
H1704       H  0.61776067  0.41946014  0.31142818     0.07600
C1705       C  0.65568622  0.52484525  0.31881005    -0.22000
C1706       C  0.66245766  0.52313465  0.35180825     0.10000
C1707       C  0.66522386  0.50896159  0.35648912     0.10400
C1708       C  0.66099789  0.49666838  0.32791724    -0.16900
C1709       C  0.65408145  0.49831074  0.29504189    -0.27300
C1710       C  0.65148403  0.51257218  0.29027399     0.18700
C1711       C  0.66665064  0.53646055  0.38096244     0.12700
C1712       C  0.67230246  0.50664862  0.39177868    -0.11700
H1713       H  0.66279448  0.48555890  0.33138117     0.12900
C1714       C  0.64423755  0.51478166  0.25516795    -0.22500
H1715       H  0.65369092  0.53582567  0.31545321     0.08600
C1716       C  0.68419232  0.55245604  0.38445281     0.04900
C1717       C  0.68756463  0.56473191  0.41242153    -0.19800
C1718       C  0.67375557  0.56155787  0.43675306    -0.12000
C1719       C  0.65589232  0.54587888  0.43205282     0.13600
C1720       C  0.65268320  0.53337376  0.40453469    -0.22500
C1721       C  0.69930943  0.55662736  0.35850401    -0.05600
H1722       H  0.70120517  0.57679835  0.41562487     0.15200
C1723       C  0.63972493  0.54223340  0.45399890    -0.15700
H1724       H  0.63908705  0.52127909  0.40094771     0.09500
H1725       H  0.65384288  0.51732980  0.23280088     0.07300
H1726       H  0.64269500  0.52643894  0.25621979     0.08500
H1727       H  0.63070457  0.50224565  0.24927334     0.07600
H1728       H  0.66285125  0.50445396  0.41425455     0.02500
H1729       H  0.68595336  0.51899707  0.39763933     0.02900
H1730       H  0.67354196  0.49479576  0.39090543     0.06400
H1731       H  0.71217156  0.56979687  0.36498320     0.05400
H1732       H  0.69535744  0.55746016  0.33035698    -0.00300
H1733       H  0.70199894  0.54576650  0.35982131     0.01100
H1734       H  0.62895425  0.54032648  0.43530284     0.04800
H1735       H  0.64287978  0.55351441  0.47247948     0.06700
H1736       H  0.63420908  0.52960481  0.47020744     0.07600
C1737       C  0.67696456  0.51786935  0.12709026    -0.22000
C1738       C  0.66492529  0.52277112  0.11742071     0.10000
C1739       C  0.64792422  0.51451742  0.13501718     0.10400
C1740       C  0.64329767  0.50142658  0.16199849    -0.16900
C1741       C  0.65527140  0.49634561  0.17184402    -0.27300
C1742       C  0.67231384  0.50460688  0.15374393     0.18700
C1743       C  0.67034235  0.53646618  0.08843520     0.12700
C1744       C  0.63478612  0.51969943  0.12556140    -0.11700
H1745       H  0.63032419  0.49530396  0.17592478     0.12900
C1746       C  0.68564567  0.49936228  0.16022134    -0.22500
H1747       H  0.68996830  0.52420245  0.11315628     0.08600
C1748       C  0.68132988  0.55523803  0.09594370     0.04900
C1749       C  0.68623741  0.56772801  0.06756182    -0.19800
C1750       C  0.68047739  0.56193746  0.03161639    -0.12000
C1751       C  0.66928924  0.54294416  0.02429893     0.13600
C1752       C  0.66440446  0.53050061  0.05291081    -0.22500
C1753       C  0.68783602  0.56205808  0.13396125    -0.05600
H1754       H  0.69473359  0.58215626  0.07363046     0.15200
C1755       C  0.66260422  0.53551743  0.98665296    -0.15700
H1756       H  0.65594773  0.51598118  0.04760779     0.09500
H1757       H  0.69838143  0.51109070  0.17193612     0.07300
H1758       H  0.68890299  0.49547372  0.13405339     0.08500
H1759       H  0.68027567  0.48759999  0.17846676     0.07600
H1760       H  0.63092329  0.51666205  0.09651054     0.02500
H1761       H  0.64125564  0.53447816  0.13045040     0.02900
H1762       H  0.62215160  0.51207725  0.14219624     0.06400
H1763       H  0.69620175  0.57717420  0.13523214     0.05400
H1764       H  0.69628736  0.55716798  0.14371824    -0.00300
H1765       H  0.67596362  0.55693129  0.15242070     0.01100
H1766       H  0.67436486  0.54028184  0.96806101     0.04800
H1767       H  0.65389308  0.54002030  0.97647646     0.06700
H1768       H  0.65430637  0.52038548  0.98626777     0.07600
C1769       C  0.73956152  0.47771635  0.21448039    -0.22000
C1770       C  0.72651394  0.46905078  0.24211617     0.10000
C1771       C  0.72882446  0.45937817  0.26956954     0.10400
C1772       C  0.74474114  0.45944976  0.26982235    -0.16900
C1773       C  0.75808004  0.46851911  0.24267114    -0.27300
C1774       C  0.75529357  0.47744461  0.21419964     0.18700
C1775       C  0.71007377  0.46951546  0.24068454     0.12700
C1776       C  0.71425695  0.44849892  0.29778017    -0.11700
H1777       H  0.74677998  0.45233910  0.29122850     0.12900
C1778       C  0.76831398  0.48590984  0.18257900    -0.22500
H1779       H  0.73731616  0.48459870  0.19290999     0.08600
C1780       C  0.70813293  0.48143567  0.26272420     0.04900
C1781       C  0.69176572  0.48053291  0.26174545    -0.19800
C1782       C  0.67763723  0.46843707  0.23830984    -0.12000
C1783       C  0.68028935  0.45758011  0.21400345     0.13600
C1784       C  0.69638503  0.45805257  0.21607213    -0.22500
C1785       C  0.72353996  0.49549534  0.28622166    -0.05600
H1786       H  0.69000178  0.48933687  0.27927842     0.15200
C1787       C  0.66685381  0.44627949  0.18441854    -0.15700
H1788       H  0.69839009  0.44949552  0.19826825     0.09500
H1789       H  0.76310540  0.49079875  0.16134253     0.07300
H1790       H  0.77025627  0.47566801  0.16992931     0.08500
H1791       H  0.78159104  0.49781536  0.19164387     0.07600
H1792       H  0.70142009  0.43797979  0.28417343     0.02500
H1793       H  0.71172560  0.45748280  0.31399339     0.02900
H1794       H  0.71816781  0.44148732  0.31680936     0.06400
H1795       H  0.71984600  0.50397001  0.30112423     0.05400
H1796       H  0.73559963  0.50466111  0.26891381    -0.00300
H1797       H  0.72729121  0.48886312  0.30648676     0.01100
H1798       H  0.67247247  0.44084812  0.16522139     0.04800
H1799       H  0.66352017  0.45471496  0.16846155     0.06700
H1800       H  0.65424604  0.43438548  0.19603230     0.07600
C1801       C  0.83221443  0.52606945  0.15921041    -0.22000
C1802       C  0.82707807  0.51874584  0.12418272     0.10000
C1803       C  0.81513824  0.49975176  0.11971886     0.10400
C1804       C  0.80849018  0.48850621  0.15057849    -0.16900
C1805       C  0.81347858  0.49582165  0.18581231    -0.27300
C1806       C  0.82572991  0.51488058  0.19008714     0.18700
C1807       C  0.83455088  0.53136133  0.09274465     0.12700
C1808       C  0.80907595  0.49142387  0.08251050    -0.11700
H1809       H  0.79897946  0.47393800  0.14723401     0.12900
C1810       C  0.83288507  0.52392253  0.22640032    -0.22500
H1811       H  0.84160177  0.54067266  0.16243397     0.08600
C1812       C  0.82849474  0.54276296  0.08456991     0.04900
C1813       C  0.83697093  0.55554282  0.05642355    -0.19800
C1814       C  0.85115669  0.55700524  0.03583717    -0.12000
C1815       C  0.85699375  0.54529811  0.04357075     0.13600
C1816       C  0.84856842  0.53261191  0.07198691    -0.22500
C1817       C  0.81295129  0.54129039  0.10525272    -0.05600
H1818       H  0.83243232  0.56442722  0.05028841     0.15200
C1819       C  0.87252961  0.54628221  0.02386169    -0.15700
H1820       H  0.85327528  0.52391497  0.07861615     0.09500
H1821       H  0.82792513  0.53278800  0.23250595     0.07300
H1822       H  0.84800260  0.53240976  0.22569368     0.08500
H1823       H  0.82887307  0.51408262  0.24873974     0.07600
H1824       H  0.82102004  0.49436180  0.06617691     0.02500
H1825       H  0.80224192  0.49719913  0.06854830     0.02900
H1826       H  0.79934812  0.47640263  0.08394617     0.06400
H1827       H  0.80960012  0.55086280  0.09462375     0.05400
H1828       H  0.81655472  0.54451475  0.13435116    -0.00300
H1829       H  0.80062510  0.52723025  0.10285364     0.01100
H1830       H  0.88314237  0.54888273  0.04374781     0.04800
H1831       H  0.87915948  0.55725695  0.00328913     0.06700
H1832       H  0.86747130  0.53309691  0.01009443     0.07600
C1833       C  0.83036646  0.51763495  0.35630745    -0.22000
C1834       C  0.81847361  0.52229442  0.36898067     0.10000
C1835       C  0.80115420  0.51429203  0.35308308     0.10400
C1836       C  0.79605032  0.50159696  0.32496997    -0.16900
C1837       C  0.80790922  0.49683511  0.31233744    -0.27300
C1838       C  0.82544452  0.50519098  0.32784525     0.18700
C1839       C  0.82506152  0.53637630  0.39757013     0.12700
C1840       C  0.78803754  0.51899980  0.36601222    -0.11700
H1841       H  0.78266684  0.49524134  0.31291634     0.12900
C1842       C  0.83966549  0.50212210  0.31413161    -0.22500
H1843       H  0.84382003  0.52415912  0.36813713     0.08600
C1844       C  0.82654352  0.53256776  0.43403059     0.04900
C1845       C  0.83511362  0.54690417  0.45918162    -0.19800
C1846       C  0.84228780  0.56503472  0.44873720    -0.12000
C1847       C  0.83980275  0.56858482  0.41230518     0.13600
C1848       C  0.83131414  0.55418266  0.38728192    -0.22500
C1849       C  0.81912024  0.51337418  0.44628624    -0.05600
H1850       H  0.83653000  0.54391346  0.48701919     0.15200
C1851       C  0.84604633  0.58737125  0.39908901    -0.15700
H1852       H  0.82995869  0.55687152  0.35915264     0.09500
H1853       H  0.84303231  0.49577006  0.33588810     0.07300
H1854       H  0.85218992  0.51541911  0.30664185     0.08500
H1855       H  0.83540875  0.49340485  0.28965759     0.07600
H1856       H  0.79402957  0.53373854  0.36183098     0.02500
H1857       H  0.78509326  0.51573446  0.39536130     0.02900
H1858       H  0.77495015  0.51124386  0.35102990     0.06400
H1859       H  0.82105275  0.51269346  0.47589429     0.05400
H1860       H  0.82616582  0.50794957  0.43167137    -0.00300
H1861       H  0.80430831  0.50458605  0.44049063     0.01100
H1862       H  0.84227865  0.58725434  0.37028379     0.04800
H1863       H  0.86109416  0.59657199  0.40081617     0.06700
H1864       H  0.83954994  0.59283645  0.41560501     0.07600
C1865       C  0.84232651  0.32540066  0.33652578    -0.22000
C1866       C  0.83225577  0.31560888  0.36736970     0.10000
C1867       C  0.81381164  0.30967786  0.37038843     0.10400
C1868       C  0.80572281  0.31329559  0.34202693    -0.16900
C1869       C  0.81546563  0.32216925  0.31028333    -0.27300
C1870       C  0.83419788  0.32895968  0.30803456     0.18700
C1871       C  0.84108515  0.31135801  0.39601952     0.12700
C1872       C  0.80257043  0.29919794  0.40317108    -0.11700
H1873       H  0.79161967  0.30897461  0.34442909     0.12900
C1874       C  0.84609698  0.34042115  0.27670616    -0.22500
H1875       H  0.85660801  0.33028727  0.33470419     0.08600
C1876       C  0.84338789  0.29687977  0.39196376     0.04900
C1877       C  0.85080538  0.29260238  0.42062205    -0.19800
C1878       C  0.85560778  0.30215769  0.45378420    -0.12000
C1879       C  0.85327215  0.31676901  0.45765851     0.13600
C1880       C  0.84624340  0.32127545  0.42849694    -0.22500
C1881       C  0.83747233  0.28557476  0.35780035    -0.05600
H1882       H  0.85238018  0.28134180  0.41732528     0.15200
C1883       C  0.85800480  0.32769073  0.49218353    -0.15700
H1884       H  0.84432377  0.33233950  0.43127336     0.09500
H1885       H  0.85218321  0.33366561  0.26348763     0.07300
H1886       H  0.85726126  0.35392035  0.28700410     0.08500
H1887       H  0.83860933  0.34281390  0.25591878     0.07600
H1888       H  0.80846484  0.30767028  0.42794849     0.02500
H1889       H  0.80237422  0.28657505  0.40625872     0.02900
H1890       H  0.78827768  0.29523635  0.40072527     0.06400
H1891       H  0.83989621  0.27451447  0.35933951     0.05400
H1892       H  0.84518498  0.29431528  0.33412677    -0.00300
H1893       H  0.82268731  0.27922775  0.35342841     0.01100
H1894       H  0.87256459  0.33392441  0.49883074     0.04800
H1895       H  0.84924018  0.31877412  0.51481100     0.06700
H1896       H  0.85580608  0.33887868  0.48966027     0.07600
C1897       C  0.81882337  0.31766432  0.12034981    -0.22000
C1898       C  0.83134177  0.31336059  0.12990137     0.10000
C1899       C  0.83464435  0.31215702  0.16687162     0.10400
C1900       C  0.82513306  0.31507550  0.19353649    -0.16900
C1901       C  0.81262064  0.31951119  0.18427467    -0.27300
C1902       C  0.80909015  0.32036191  0.14697235     0.18700
C1903       C  0.83992934  0.30893206  0.10082427     0.12700
C1904       C  0.84838057  0.30802617  0.17817949    -0.11700
H1905       H  0.82763472  0.31401961  0.22185219     0.12900
C1906       C  0.79444089  0.32286343  0.13393815    -0.22500
H1907       H  0.81609428  0.31819501  0.09183752     0.08600
C1908       C  0.83250328  0.29072941  0.09045514     0.04900
C1909       C  0.84153161  0.28697837  0.06418747    -0.19800
C1910       C  0.85755744  0.30101297  0.04725921    -0.12000
C1911       C  0.86480398  0.31934622  0.05716280     0.13600
C1912       C  0.85580741  0.32303820  0.08381154    -0.22500
C1913       C  0.81486485  0.27529780  0.10662146    -0.05600
H1914       H  0.83583608  0.27296758  0.05628468     0.15200
C1915       C  0.88227809  0.33529745  0.04162528    -0.15700
H1916       H  0.86140806  0.33700662  0.09190411     0.09500
H1917       H  0.78558335  0.31194990  0.11419993     0.07300
H1918       H  0.80079638  0.33626560  0.12018309     0.08500
H1919       H  0.78533914  0.32185859  0.15593250     0.07600
H1920       H  0.86200673  0.31865639  0.16727403     0.02500
H1921       H  0.84447932  0.29455674  0.16753559     0.02900
H1922       H  0.84940933  0.30775514  0.20821326     0.06400
H1923       H  0.81085197  0.26192441  0.09509238     0.05400
H1924       H  0.80381423  0.27739025  0.10085913    -0.00300
H1925       H  0.81618048  0.27471551  0.13645419     0.01100
H1926       H  0.87937085  0.34430571  0.02660345     0.04800
H1927       H  0.88937598  0.33129441  0.02310495     0.06700
H1928       H  0.89182577  0.34319384  0.06410819     0.07600
C1929       C  0.80769544  0.38966883  0.24782464    -0.22000
C1930       C  0.79099143  0.38785028  0.25068026     0.10000
C1931       C  0.77484522  0.37041834  0.25252866     0.10400
C1932       C  0.77574073  0.35505358  0.25164668    -0.16900
C1933       C  0.79250276  0.35647754  0.24905410    -0.27300
C1934       C  0.80880747  0.37440526  0.24709180     0.18700
C1935       C  0.79073140  0.40445668  0.25189577     0.12700
C1936       C  0.75661016  0.36804988  0.25599355    -0.11700
H1937       H  0.76298579  0.34209737  0.25341244     0.12900
C1938       C  0.82785010  0.37852682  0.24440148    -0.22500
H1939       H  0.82007104  0.40323126  0.24638517     0.08600
C1940       C  0.79402339  0.41425018  0.28430053     0.04900
C1941       C  0.79413735  0.43020361  0.28389906    -0.19800
C1942       C  0.79086251  0.43669373  0.25175878    -0.12000
C1943       C  0.78584562  0.42558716  0.21994387     0.13600
C1944       C  0.78650446  0.41007303  0.22032079    -0.22500
C1945       C  0.79711869  0.40765235  0.31948329    -0.05600
H1946       H  0.79636683  0.43709614  0.30940931     0.15200
C1947       C  0.77945260  0.42912836  0.18487134    -0.15700
H1948       H  0.78331775  0.40201374  0.19580077     0.09500
H1949       H  0.83601455  0.38713837  0.26778819     0.07300
H1950       H  0.83438313  0.38617472  0.21890901     0.08500
H1951       H  0.82867295  0.36652141  0.24442585     0.07600
H1952       H  0.75425138  0.37408584  0.23202756     0.02500
H1953       H  0.75631025  0.37493971  0.28100201     0.02900
H1954       H  0.74522793  0.35347156  0.25764002     0.06400
H1955       H  0.79920604  0.41672292  0.34260160     0.05400
H1956       H  0.80937408  0.40715830  0.31707474    -0.00300
H1957       H  0.78510689  0.39379929  0.32581930     0.01100
H1958       H  0.78924448  0.43182163  0.16274072     0.04800
H1959       H  0.77775590  0.44059441  0.18584543     0.06700
H1960       H  0.76594083  0.41686821  0.17763913     0.07600
C1961       C  0.74094001  0.25425273  0.26109707    -0.22000
C1962       C  0.72737970  0.25180406  0.23748274     0.10000
C1963       C  0.73019155  0.26670781  0.21734541     0.10400
C1964       C  0.74653987  0.28380367  0.22140251    -0.16900
C1965       C  0.75998320  0.28667312  0.24629469    -0.27300
C1966       C  0.75706976  0.27148879  0.26629413     0.18700
C1967       C  0.70949907  0.23411787  0.23760216     0.12700
C1968       C  0.71572220  0.26465896  0.19226882    -0.11700
H1969       H  0.74867948  0.29512447  0.20535436     0.12900
C1970       C  0.76982980  0.27276029  0.29486854    -0.22500
H1971       H  0.73851704  0.24275051  0.27694881     0.08600
C1972       C  0.70535535  0.21987627  0.21350319     0.04900
C1973       C  0.68789546  0.20362520  0.21453537    -0.19800
C1974       C  0.67461116  0.20131788  0.23936395    -0.12000
C1975       C  0.67919323  0.21541102  0.26463144     0.13600
C1976       C  0.69644085  0.23171004  0.26284177    -0.22500
C1977       C  0.71932538  0.22189447  0.18676513    -0.05600
H1978       H  0.68451015  0.19279804  0.19552368     0.15200
C1979       C  0.66673004  0.21368144  0.29491189    -0.15700
H1980       H  0.69987131  0.24259711  0.28176326     0.09500
H1981       H  0.77523728  0.26451990  0.28657592     0.07300
H1982       H  0.76241852  0.26744334  0.32108002     0.08500
H1983       H  0.78130595  0.28676442  0.29976484     0.07600
H1984       H  0.70309763  0.26007536  0.20794475     0.02500
H1985       H  0.71269597  0.25445611  0.17092770     0.02900
H1986       H  0.72006594  0.27770923  0.17868097     0.06400
H1987       H  0.71388020  0.20947786  0.16987101     0.05400
H1988       H  0.73141054  0.22434166  0.20160957    -0.00300
H1989       H  0.72360517  0.23357483  0.16836919     0.01100
H1990       H  0.67401517  0.21692941  0.32121935     0.04800
H1991       H  0.65428260  0.19982280  0.29782720     0.06700
H1992       H  0.66276477  0.22346559  0.29036709     0.07600
C1993       C  0.64543734  0.12170224  0.15139669    -0.22000
C1994       C  0.65539269  0.13254329  0.12144817     0.10000
C1995       C  0.65993628  0.15057324  0.11914741     0.10400
C1996       C  0.65446444  0.15741002  0.14706876    -0.16900
C1997       C  0.64460430  0.14660511  0.17711336    -0.27300
C1998       C  0.63995098  0.12850487  0.17932447     0.18700
C1999       C  0.66140499  0.12492202  0.09333789     0.12700
C2000       C  0.67087541  0.16268023  0.08764062    -0.11700
H2001       H  0.65805043  0.17130101  0.14570270     0.12900
C2002       C  0.62931396  0.11606635  0.21066271    -0.22500
H2003       H  0.64202316  0.10786617  0.15306416     0.08600
C2004       C  0.67685199  0.12432488  0.09859211     0.04900
C2005       C  0.68212187  0.11703968  0.07127696    -0.19800
C2006       C  0.67250291  0.11056732  0.03836316    -0.12000
C2007       C  0.65707359  0.11145416  0.03303322     0.13600
C2008       C  0.65166324  0.11846365  0.06082291    -0.22500
C2009       C  0.68798760  0.13173236  0.13276719    -0.05600
H2010       H  0.69407679  0.11671897  0.07554437     0.15200
C2011       C  0.64617078  0.10513336  0.99843187    -0.15700
H2012       H  0.63985909  0.11911065  0.05710230     0.09500
H2013       H  0.63778113  0.11227428  0.22505222     0.07300
H2014       H  0.61685646  0.10350788  0.20030076     0.08500
H2015       H  0.62496135  0.12237166  0.23047296     0.07600
H2016       H  0.66339525  0.15660836  0.06190031     0.02500
H2017       H  0.68421902  0.16419354  0.08622648     0.02900
H2018       H  0.67347269  0.17647117  0.09035979     0.06400
H2019       H  0.69987199  0.13054712  0.13225047     0.05400
H2020       H  0.67945908  0.12408598  0.15672565    -0.00300
H2021       H  0.69315406  0.14635982  0.13582557     0.01100
H2022       H  0.64076757  0.09056053  0.99356239     0.04800
H2023       H  0.65485170  0.11353240  0.97521765     0.06700
H2024       H  0.63438926  0.10647451  0.99968810     0.07600
C2025       C  0.66396751  0.14679762  0.34772816    -0.22000
C2026       C  0.65088847  0.12841595  0.35529093     0.10000
C2027       C  0.63438906  0.11913436  0.33587720     0.10400
C2028       C  0.63138353  0.12850805  0.30913468    -0.16900
C2029       C  0.64463433  0.14686471  0.30093236    -0.27300
C2030       C  0.66109536  0.15617037  0.32079646     0.18700
C2031       C  0.65486700  0.11945020  0.38421191     0.12700
C2032       C  0.62010959  0.09932721  0.34304868    -0.11700
H2033       H  0.61866271  0.12141948  0.29435002     0.12900
C2034       C  0.67530601  0.17616024  0.31531162    -0.22500
H2035       H  0.67648876  0.15385687  0.36321773     0.08600
C2036       C  0.66718970  0.11430202  0.37831583     0.04900
C2037       C  0.67219733  0.10783203  0.40757065    -0.19800
C2038       C  0.66523833  0.10638774  0.44287116    -0.12000
C2039       C  0.65223579  0.11090818  0.44826617     0.13600
C2040       C  0.64727965  0.11739163  0.41880721    -0.22500
C2041       C  0.67510117  0.11570969  0.34112081    -0.05600
H2042       H  0.68192369  0.10420141  0.40279111     0.15200
C2043       C  0.64369264  0.10933417  0.48480604    -0.15700
H2044       H  0.63777882  0.12137570  0.42293583     0.09500
H2045       H  0.68150842  0.17869049  0.28794612     0.07300
H2046       H  0.68653613  0.18140747  0.33527867     0.08500
H2047       H  0.66901131  0.18398248  0.31889119     0.07600
H2048       H  0.61533661  0.09747429  0.37164379     0.02500
H2049       H  0.62594833  0.09113352  0.33816063     0.02900
H2050       H  0.60812570  0.09407492  0.32505502     0.06400
H2051       H  0.68428453  0.11080646  0.34103421     0.05400
H2052       H  0.68309650  0.13010127  0.33187189    -0.00300
H2053       H  0.66393237  0.10732520  0.32155730     0.01100
H2054       H  0.63370745  0.11323037  0.48355073     0.04800
H2055       H  0.65435313  0.11854015  0.50459806     0.06700
H2056       H  0.63631515  0.09503380  0.49454683     0.07600
C2057       C  0.54094963  0.15129495  0.23020122    -0.22000
C2058       C  0.55798931  0.16769099  0.23235507     0.10000
C2059       C  0.55910435  0.18419264  0.23437053     0.10400
C2060       C  0.54305626  0.18391297  0.23424896    -0.16900
C2061       C  0.52562060  0.16744638  0.23237519    -0.27300
C2062       C  0.52479283  0.15079696  0.23068483     0.18700
C2063       C  0.57443359  0.16712153  0.23431162     0.12700
C2064       C  0.57727095  0.20213581  0.23747247    -0.11700
H2065       H  0.54463891  0.19686195  0.23618279     0.12900
C2066       C  0.50738372  0.13198504  0.22968032    -0.22500
H2067       H  0.54024717  0.13863316  0.22883963     0.08600
C2068       C  0.57883780  0.16170950  0.26627087     0.04900
C2069       C  0.59443466  0.16121431  0.26700046    -0.19800
C2070       C  0.60600294  0.16595987  0.23640873    -0.12000
C2071       C  0.60185857  0.17243547  0.20483420     0.13600
C2072       C  0.58594430  0.17242668  0.20410715    -0.22500
C2073       C  0.56725164  0.15683147  0.30003626    -0.05600
H2074       H  0.59755010  0.15758872  0.29242656     0.15200
C2075       C  0.61373668  0.17988145  0.17124171    -0.15700
H2076       H  0.58262312  0.17693582  0.17981753     0.09500
H2077       H  0.49473962  0.13164593  0.23117698     0.07300
H2078       H  0.50696330  0.12503942  0.20414149     0.08500
H2079       H  0.50713077  0.12390400  0.25305270     0.07600
H2080       H  0.58570109  0.20437624  0.21305729     0.02500
H2081       H  0.58448759  0.20206828  0.26203411     0.02900
H2082       H  0.57576901  0.21379406  0.23972598     0.06400
H2083       H  0.57287596  0.15341003  0.32315786     0.05400
H2084       H  0.55330290  0.14481955  0.29472470    -0.00300
H2085       H  0.56651312  0.16851978  0.30827764     0.01100
H2086       H  0.60613879  0.17112003  0.14758569     0.04800
H2087       H  0.62675739  0.18095694  0.17308894     0.06700
H2088       H  0.61723337  0.19385408  0.16578548     0.07600
C2089       C  0.50134895  0.23021738  0.20751545    -0.22000
C2090       C  0.49063675  0.23140333  0.23405087     0.10000
C2091       C  0.48023225  0.21683117  0.25843082     0.10400
C2092       C  0.48153632  0.20170108  0.25687611    -0.16900
C2093       C  0.49259304  0.20065637  0.23082443    -0.27300
C2094       C  0.50210561  0.21481569  0.20491771     0.18700
C2095       C  0.48998048  0.24776344  0.23451123     0.12700
C2096       C  0.46749205  0.21708344  0.28544416    -0.11700
H2097       H  0.47397403  0.19067693  0.27620669     0.12900
C2098       C  0.51244067  0.21386169  0.17320311    -0.22500
H2099       H  0.50882670  0.24122914  0.18809798     0.08600
C2100       C  0.50104134  0.26247304  0.25797582     0.04900
C2101       C  0.50043099  0.27798929  0.25613459    -0.19800
C2102       C  0.48973602  0.27960121  0.23009670    -0.12000
C2103       C  0.47872733  0.26471806  0.20643290     0.13600
C2104       C  0.47887398  0.24895830  0.20933617    -0.22500
C2105       C  0.51406065  0.26213487  0.28379357    -0.05600
H2106       H  0.50876457  0.28917288  0.27463114     0.15200
C2107       C  0.46731871  0.26497455  0.17660916    -0.15700
H2108       H  0.47063609  0.23765271  0.19099257     0.09500
H2109       H  0.52715652  0.22465885  0.17591461     0.07300
H2110       H  0.50737059  0.21609606  0.14754744     0.08500
H2111       H  0.51072853  0.20049959  0.17052705     0.07600
H2112       H  0.45717555  0.21818087  0.27078581     0.02500
H2113       H  0.47513948  0.22885400  0.30407936     0.02900
H2114       H  0.46021100  0.20447651  0.30214237     0.06400
H2115       H  0.52192914  0.27491973  0.29979616     0.05400
H2116       H  0.52388121  0.26052246  0.26819627    -0.00300
H2117       H  0.50654526  0.25063618  0.30314411     0.01100
H2118       H  0.47189848  0.26292059  0.14997896     0.04800
H2119       H  0.46826368  0.27785315  0.17518711     0.06700
H2120       H  0.45281578  0.25385214  0.18099100     0.07600
C2121       C  0.43716949  0.12729209  0.32301470    -0.22000
C2122       C  0.44323679  0.13609556  0.35661470     0.10000
C2123       C  0.46129939  0.15128909  0.36018876     0.10400
C2124       C  0.47295178  0.15733120  0.32985363    -0.16900
C2125       C  0.46683845  0.14864385  0.29600339    -0.27300
C2126       C  0.44867042  0.13342043  0.29256017     0.18700
C2127       C  0.43018147  0.12923175  0.38733223     0.12700
C2128       C  0.46810220  0.16130829  0.39573010    -0.11700
H2129       H  0.48681680  0.16910087  0.33234465     0.12900
C2130       C  0.44094932  0.12303500  0.25766965    -0.22500
H2131       H  0.42326392  0.11557074  0.32051396     0.08600
C2132       C  0.41633966  0.13257827  0.38910775     0.04900
C2133       C  0.40329816  0.12454025  0.41691913    -0.19800
C2134       C  0.40369828  0.11317311  0.44303435    -0.12000
C2135       C  0.41780031  0.11001003  0.44146968     0.13600
C2136       C  0.43096332  0.11828017  0.41375441    -0.22500
C2137       C  0.41537263  0.14468004  0.36169959    -0.05600
H2138       H  0.39264549  0.12712406  0.41822733     0.15200
C2139       C  0.41903454  0.09733264  0.46683781    -0.15700
H2140       H  0.44156670  0.11564133  0.41194245     0.09500
H2141       H  0.42919491  0.12356743  0.24923004     0.07300
H2142       H  0.43625192  0.10859373  0.26183822     0.08500
H2143       H  0.45093357  0.12849130  0.23529132     0.07600
H2144       H  0.46728038  0.15199340  0.41703912     0.02500
H2145       H  0.45964044  0.16646706  0.40403608     0.02900
H2146       H  0.48248123  0.17310600  0.39366471     0.06400
H2147       H  0.40393893  0.14621517  0.36759865     0.05400
H2148       H  0.41331217  0.13879951  0.33406969    -0.00300
H2149       H  0.42824124  0.15842704  0.36213631     0.01100
H2150       H  0.41942382  0.08690864  0.45067750     0.04800
H2151       H  0.40738553  0.08984971  0.48575030     0.06700
H2152       H  0.43175156  0.10520810  0.48293117     0.07600
C2153       C  0.40838814  0.11976062  0.09504278    -0.22000
C2154       C  0.42637484  0.12696272  0.08435728     0.10000
C2155       C  0.43052146  0.12698620  0.04736568     0.10400
C2156       C  0.41648697  0.11982967  0.02166825    -0.16900
C2157       C  0.39831907  0.11259694  0.03205294    -0.27300
C2158       C  0.39427068  0.11262178  0.06951940     0.18700
C2159       C  0.44069030  0.13480897  0.11250538     0.12700
C2160       C  0.44979101  0.13474919  0.03504577    -0.11700
H2161       H  0.41980273  0.11993183  0.99324724     0.12900
C2162       C  0.37529571  0.10540336  0.08324179    -0.22500
H2163       H  0.40544710  0.11988970  0.12364448     0.08600
C2164       C  0.44798013  0.15247976  0.12620157     0.04900
C2165       C  0.46104833  0.15915869  0.15378888    -0.19800
C2166       C  0.46708372  0.14862171  0.16785338    -0.12000
C2167       C  0.45985863  0.13090433  0.15383007     0.13600
C2168       C  0.44666483  0.12421794  0.12633998    -0.22500
C2169       C  0.44197673  0.16427688  0.11161945    -0.05600
H2170       H  0.46662067  0.17272424  0.16444447     0.15200
C2171       C  0.46543788  0.11870351  0.16824273    -0.15700
H2172       H  0.44086403  0.11061902  0.11567623     0.09500
H2173       H  0.37494294  0.10683907  0.11317587     0.07300
H2174       H  0.36611852  0.09068389  0.07681388     0.08500
H2175       H  0.37011867  0.11310923  0.07068750     0.07600
H2176       H  0.45494618  0.12706706  0.04778566     0.02500
H2177       H  0.45862317  0.14929252  0.04309481     0.02900
H2178       H  0.45073651  0.13391760  0.00508579     0.06400
H2179       H  0.44922785  0.17782930  0.12500449     0.05400
H2180       H  0.42715605  0.15758754  0.11638142    -0.00300
H2181       H  0.44482033  0.16641619  0.08199476     0.01100
H2182       H  0.45722978  0.10487646  0.15609353     0.04800
H2183       H  0.46352739  0.11715734  0.19810238     0.06700
H2184       H  0.47986992  0.12439210  0.16143047     0.07600
C2185       C  0.55159986  0.84594030  0.87337838    -0.22000
C2186       C  0.53962734  0.85168134  0.87344799     0.10000
C2187       C  0.54103224  0.86346036  0.90125241     0.10400
C2188       C  0.55414306  0.86893344  0.92858929    -0.16900
C2189       C  0.56608913  0.86314173  0.92871740    -0.27300
C2190       C  0.56478541  0.85144803  0.90058933     0.18700
C2191       C  0.52471850  0.84385538  0.84617511     0.12700
C2192       C  0.52893997  0.87054884  0.90180717    -0.11700
H2193       H  0.55520213  0.87797703  0.94989820     0.12900
C2194       C  0.57627517  0.84367211  0.89909169    -0.22500
H2195       H  0.55023173  0.83654597  0.85255337     0.08600
C2196       C  0.52804611  0.84768029  0.80863423     0.04900
C2197       C  0.51338645  0.83891787  0.78420303    -0.19800
C2198       C  0.49545646  0.82652534  0.79634050    -0.12000
C2199       C  0.49215150  0.82287158  0.83412739     0.13600
C2200       C  0.50682920  0.83160416  0.85831720    -0.22500
C2201       C  0.54695932  0.86116692  0.79434686    -0.05600
H2202       H  0.51593085  0.84172805  0.75535557     0.15200
C2203       C  0.47366683  0.80924955  0.85029724    -0.15700
H2204       H  0.50434771  0.82838500  0.88704581     0.09500
H2205       H  0.58474594  0.84847109  0.87402501     0.07300
H2206       H  0.56726772  0.82856360  0.89844372     0.08500
H2207       H  0.58534911  0.84737515  0.92270999     0.07600
H2208       H  0.51449632  0.85917275  0.90534811     0.02500
H2209       H  0.53050947  0.87773030  0.87591189     0.02900
H2210       H  0.53244898  0.88028319  0.92446861     0.06400
H2211       H  0.54700146  0.86302933  0.76449124     0.05400
H2212       H  0.55595329  0.85636798  0.80009195    -0.00300
H2213       H  0.55259561  0.87459847  0.80751361     0.01100
H2214       H  0.47453023  0.79945058  0.86757922     0.04800
H2215       H  0.46302442  0.80105227  0.82990594     0.06700
H2216       H  0.46927285  0.81648477  0.86755927     0.07600
C2217       C  0.52679492  0.85142304  0.55237952    -0.22000
C2218       C  0.53142700  0.84820525  0.58650245     0.10000
C2219       C  0.54914566  0.85252942  0.59244297     0.10400
C2220       C  0.56188617  0.85990830  0.56396268    -0.16900
C2221       C  0.55736372  0.86295644  0.52928360    -0.27300
C2222       C  0.53947933  0.85871250  0.52359108     0.18700
C2223       C  0.51733261  0.83956004  0.61535653     0.12700
C2224       C  0.55454015  0.84918345  0.62883770    -0.11700
H2225       H  0.57544305  0.86307115  0.56886358     0.12900
C2226       C  0.53346156  0.86164240  0.48752581    -0.22500
H2227       H  0.51308024  0.84798232  0.54820206     0.08600
C2228       C  0.51418578  0.84995223  0.63958775     0.04900
C2229       C  0.50121521  0.84107840  0.66746984    -0.19800
C2230       C  0.49134052  0.82208396  0.67146362    -0.12000
C2231       C  0.49418572  0.81166819  0.64653929     0.13600
C2232       C  0.50728728  0.82057600  0.61900185    -0.22500
C2233       C  0.52465293  0.87036442  0.63618686    -0.05600
H2234       H  0.49891017  0.84899000  0.68654990     0.15200
C2235       C  0.48340960  0.79118782  0.64758431    -0.15700
H2236       H  0.50966769  0.81265016  0.60011527     0.09500
H2237       H  0.54218056  0.87625121  0.47983533     0.07300
H2238       H  0.51914859  0.85775757  0.48846739     0.08500
H2239       H  0.53428536  0.85314741  0.46634959     0.07600
H2240       H  0.54582384  0.83445560  0.63559407     0.02500
H2241       H  0.55284359  0.85704374  0.65017714     0.02900
H2242       H  0.56895696  0.85338734  0.62900228     0.06400
H2243       H  0.52055831  0.87641498  0.65738137     0.05400
H2244       H  0.52210035  0.87407935  0.60916797    -0.00300
H2245       H  0.53944873  0.87634250  0.63908112     0.01100
H2246       H  0.47683304  0.78564775  0.62084468     0.04800
H2247       H  0.47246917  0.78536216  0.66821829     0.06700
H2248       H  0.49261461  0.78663484  0.65344342     0.07600
C2249       C  0.47938139  0.75415562  0.76781849    -0.22000
C2250       C  0.46957576  0.74022197  0.74245905     0.10000
C2251       C  0.45806030  0.74127494  0.71766767     0.10400
C2252       C  0.45690635  0.75652172  0.71834159    -0.16900
C2253       C  0.46710935  0.77082700  0.74308081    -0.27300
C2254       C  0.47829105  0.76943582  0.76856995     0.18700
C2255       C  0.47063823  0.72406307  0.74394220     0.12700
C2256       C  0.44689745  0.72622255  0.69074947    -0.11700
H2257       H  0.44812808  0.75737669  0.69916268     0.12900
C2258       C  0.48824791  0.78331008  0.79809771    -0.22500
H2259       H  0.48778973  0.75293091  0.78739006     0.08600
C2260       C  0.48321037  0.72273420  0.72274523     0.04900
C2261       C  0.48273426  0.70653190  0.72355428    -0.19800
C2262       C  0.47027987  0.69186411  0.74586507    -0.12000
C2263       C  0.45888064  0.69405115  0.76967481     0.13600
C2264       C  0.45888211  0.70989319  0.76755108    -0.22500
C2265       C  0.49707263  0.73841747  0.69939704    -0.05600
H2266       H  0.49182598  0.70517948  0.70607921     0.15200
C2267       C  0.44701423  0.68046395  0.79869048    -0.15700
H2268       H  0.44976134  0.71132283  0.78485964     0.09500
H2269       H  0.49911597  0.79655628  0.78650560     0.07300
H2270       H  0.49487606  0.77910630  0.81745897     0.08500
H2271       H  0.47840968  0.78481232  0.81368171     0.07600
H2272       H  0.43751229  0.71326404  0.70543276     0.02500
H2273       H  0.45599845  0.72449672  0.67287508     0.02900
H2274       H  0.43860787  0.72918000  0.67329310     0.06400
H2275       H  0.50595868  0.73519510  0.68464778     0.05400
H2276       H  0.50584290  0.75053752  0.71673414    -0.00300
H2277       H  0.49011785  0.74176809  0.67906503     0.01100
H2278       H  0.45044443  0.68741235  0.82547447     0.04800
H2279       H  0.44888797  0.66916099  0.80142795     0.06700
H2280       H  0.43247699  0.67473619  0.79274632     0.07600
C2281       C  0.53871839  0.66687487  0.90011778    -0.22000
C2282       C  0.53680238  0.67991757  0.88317173     0.10000
C2283       C  0.54859061  0.69843742  0.89259104     0.10400
C2284       C  0.56204942  0.70351465  0.91892649    -0.16900
C2285       C  0.56396345  0.69049755  0.93629660    -0.27300
C2286       C  0.55229333  0.67190866  0.92624822     0.18700
C2287       C  0.52240359  0.67398987  0.85550650     0.12700
C2288       C  0.54691842  0.71281677  0.87484337    -0.11700
H2289       H  0.57099501  0.71774199  0.92637509     0.12900
C2290       C  0.55415892  0.65708316  0.94093516    -0.22500
H2291       H  0.52974944  0.65268556  0.89239839     0.08600
C2292       C  0.52556170  0.67245828  0.81849920     0.04900
C2293       C  0.51197886  0.66818778  0.79297084    -0.19800
C2294       C  0.49503840  0.66469205  0.80372657    -0.12000
C2295       C  0.49176320  0.66584621  0.84106195     0.13600
C2296       C  0.50555268  0.67057075  0.86639097    -0.22500
C2297       C  0.54322774  0.67527290  0.80603829    -0.05600
H2298       H  0.51455013  0.66741437  0.76446055     0.15200
C2299       C  0.47426711  0.66284502  0.85527523    -0.15700
H2300       H  0.50323334  0.67183252  0.89487734     0.09500
H2301       H  0.55581104  0.64993364  0.91794788     0.07300
H2302       H  0.54167536  0.64709303  0.95638756     0.08500
H2303       H  0.56610062  0.66217145  0.95873230     0.07600
H2304       H  0.53320364  0.71000213  0.88034635     0.02500
H2305       H  0.54889555  0.71277948  0.84503683     0.02900
H2306       H  0.55722491  0.72664983  0.88525519     0.06400
H2307       H  0.54344224  0.67348912  0.77618938     0.05400
H2308       H  0.54513295  0.66520942  0.81956719    -0.00300
H2309       H  0.55476398  0.68923865  0.81309004     0.01100
H2310       H  0.46788830  0.65133882  0.87487621     0.04800
H2311       H  0.46429268  0.65970789  0.83374172     0.06700
H2312       H  0.47720182  0.67532420  0.86942027     0.07600
C2313       C  0.52661814  0.67045572  0.55713501    -0.22000
C2314       C  0.53329303  0.67840518  0.59126369     0.10000
C2315       C  0.55220386  0.69017450  0.59650099     0.10400
C2316       C  0.56407950  0.69384009  0.56737154    -0.16900
C2317       C  0.55758282  0.68616181  0.53271223    -0.27300
C2318       C  0.53845667  0.67421002  0.52767624     0.18700
C2319       C  0.52029436  0.67413112  0.62141747     0.12700
C2320       C  0.55983363  0.69912588  0.63275315    -0.11700
H2321       H  0.57859035  0.70304488  0.57175306     0.12900
C2322       C  0.53025334  0.66542822  0.49159440    -0.22500
H2323       H  0.51202256  0.66136516  0.55353495     0.08600
C2324       C  0.51139370  0.68328375  0.62535860     0.04900
C2325       C  0.49951906  0.67899644  0.65491476    -0.19800
C2326       C  0.49634281  0.66573822  0.68041032    -0.12000
C2327       C  0.50542731  0.65671049  0.67659062     0.13600
C2328       C  0.51723926  0.66099852  0.64704953    -0.22500
C2329       C  0.51443754  0.69752875  0.59836727    -0.05600
H2330       H  0.49235411  0.68569829  0.65767970     0.15200
C2331       C  0.50318296  0.64265807  0.70325025    -0.15700
H2332       H  0.52423300  0.65412041  0.64407730     0.09500
H2333       H  0.51516031  0.65640157  0.49306159     0.07300
H2334       H  0.53534359  0.65696901  0.48286049     0.08500
H2335       H  0.53379676  0.67606544  0.47092659     0.07600
H2336       H  0.55587290  0.68857812  0.65387578     0.02500
H2337       H  0.55443670  0.70745736  0.64039349     0.02900
H2338       H  0.57493156  0.70819887  0.63213051     0.06400
H2339       H  0.50652877  0.70345331  0.60558270     0.05400
H2340       H  0.51013969  0.69136661  0.57092335    -0.00300
H2341       H  0.52909614  0.70873152  0.59759563     0.01100
H2342       H  0.49718309  0.62935778  0.68928296     0.04800
H2343       H  0.49438484  0.64077112  0.72662531     0.06700
H2344       H  0.51670621  0.64696914  0.71423538     0.07600
C2345       C  0.30827966  0.85360729  0.92622807    -0.22000
C2346       C  0.30148091  0.85141509  0.89093619     0.10000
C2347       C  0.28994044  0.85727986  0.88280878     0.10400
C2348       C  0.28496021  0.86467295  0.91051807    -0.16900
C2349       C  0.29117403  0.86634569  0.94643873    -0.27300
C2350       C  0.30336295  0.86103678  0.95411895     0.18700
C2351       C  0.30595086  0.84216409  0.86334368     0.12700
C2352       C  0.28284688  0.85569266  0.84487483    -0.11700
H2353       H  0.27585706  0.86888255  0.90405845     0.12900
C2354       C  0.31095477  0.86264235  0.99155964    -0.22500
H2355       H  0.31719896  0.84909534  0.93209948     0.08600
C2356       C  0.32309832  0.85112293  0.84601195     0.04900
C2357       C  0.32663668  0.84161433  0.82043380    -0.19800
C2358       C  0.31341344  0.82334155  0.81169242    -0.12000
C2359       C  0.29638743  0.81427292  0.82988056     0.13600
C2360       C  0.29281553  0.82388858  0.85506796    -0.22500
C2361       C  0.33749955  0.87079097  0.85399432    -0.05600
H2362       H  0.33968142  0.84861161  0.80654607     0.15200
C2363       C  0.28199393  0.79432223  0.82488669    -0.15700
H2364       H  0.27976739  0.81695866  0.86897545     0.09500
H2365       H  0.32014228  0.85774781  0.99230921     0.07300
H2366       H  0.29968896  0.85429064  0.01112184     0.08500
H2367       H  0.31898884  0.87712179  0.00023541     0.07600
H2368       H  0.27443719  0.84117380  0.83654888     0.02500
H2369       H  0.29444886  0.86337978  0.82565665     0.02900
H2370       H  0.27426461  0.86125877  0.84297979     0.06400
H2371       H  0.35000608  0.87582576  0.83752621     0.05400
H2372       H  0.34130578  0.87240567  0.88311526    -0.00300
H2373       H  0.33221433  0.87933889  0.84768463     0.01100
H2374       H  0.27817899  0.78741697  0.85174852     0.04800
H2375       H  0.28669670  0.78735966  0.80798576     0.06700
H2376       H  0.26973291  0.79260856  0.81229024     0.07600
C2377       C  0.30953322  0.84948723  0.66823754    -0.22000
C2378       C  0.30682226  0.84284163  0.63261449     0.10000
C2379       C  0.30874977  0.82835324  0.62456861     0.10400
C2380       C  0.31350893  0.82090835  0.65235714    -0.16900
C2381       C  0.31565852  0.82712369  0.68825941    -0.27300
C2382       C  0.31378938  0.84168815  0.69628832     0.18700
C2383       C  0.30151968  0.85086652  0.60412961     0.12700
C2384       C  0.30528238  0.82043420  0.58686947    -0.11700
H2385       H  0.31512827  0.80986042  0.64623885     0.12900
C2386       C  0.31671470  0.84934621  0.73407213    -0.22500
H2387       H  0.30810304  0.86068056  0.67411485     0.08600
C2388       C  0.28347442  0.84615724  0.60142305     0.04900
C2389       C  0.27877886  0.85313957  0.57262142    -0.19800
C2390       C  0.29159857  0.86442827  0.54596849    -0.12000
C2391       C  0.30974939  0.86925004  0.54891087     0.13600
C2392       C  0.31450679  0.86254210  0.57824761    -0.22500
C2393       C  0.26906574  0.83335208  0.62831584    -0.05600
H2394       H  0.26484065  0.84933475  0.57036469     0.15200
C2395       C  0.32421503  0.88162243  0.52170790    -0.15700
H2396       H  0.32834921  0.86609080  0.58066600     0.09500
H2397       H  0.30617021  0.83892166  0.75266194     0.07300
H2398       H  0.31576552  0.86137535  0.73504184     0.08500
H2399       H  0.33045422  0.85367447  0.74369249     0.07600
H2400       H  0.31504851  0.83098118  0.56735977     0.02500
H2401       H  0.29117328  0.81544679  0.57854885     0.02900
H2402       H  0.30686788  0.80881014  0.58550149     0.06400
H2403       H  0.25554904  0.83074351  0.62169190     0.05400
H2404       H  0.27282554  0.83929324  0.65600473    -0.00300
H2405       H  0.26777866  0.82009822  0.62816269     0.01100
H2406       H  0.33779193  0.88467413  0.52939862     0.04800
H2407       H  0.32524912  0.89472968  0.52003462     0.06700
H2408       H  0.32082752  0.87502222  0.49460281     0.07600
C2409       C  0.37355727  0.79959778  0.71264221    -0.22000
C2410       C  0.38529652  0.80531826  0.74238844     0.10000
C2411       C  0.38116411  0.81143653  0.77385121     0.10400
C2412       C  0.36543238  0.81174786  0.77485736    -0.16900
C2413       C  0.35336510  0.80614990  0.74504742    -0.27300
C2414       C  0.35765197  0.79968994  0.71345770     0.18700
C2415       C  0.40175716  0.80459783  0.74038492     0.12700
C2416       C  0.39323089  0.81733231  0.80686314    -0.11700
H2417       H  0.36281240  0.81618476  0.79990208     0.12900
C2418       C  0.34600239  0.79251097  0.67974536    -0.22500
H2419       H  0.37677266  0.79482213  0.68849705     0.08600
C2420       C  0.40061341  0.78810381  0.74369427     0.04900
C2421       C  0.41663284  0.78823919  0.74328238    -0.19800
C2422       C  0.43411481  0.80454322  0.73948854    -0.12000
C2423       C  0.43496734  0.82117362  0.73595248     0.13600
C2424       C  0.41885281  0.82082984  0.73636757    -0.22500
C2425       C  0.38241830  0.77030654  0.74822905    -0.05600
H2426       H  0.41502366  0.77530343  0.74608995     0.15200
C2427       C  0.45237054  0.83983771  0.73165263    -0.15700
H2428       H  0.41964217  0.83349754  0.73378922     0.09500
H2429       H  0.34198935  0.77833797  0.67459530     0.07300
H2430       H  0.35400123  0.80108159  0.65607810     0.08500
H2431       H  0.33334039  0.79216209  0.68108549     0.07600
H2432       H  0.40704898  0.82924924  0.80005365     0.02500
H2433       H  0.39421660  0.80596615  0.81630393     0.02900
H2434       H  0.38787174  0.82132335  0.82969598     0.06400
H2435       H  0.38384237  0.75863346  0.75124199     0.05400
H2436       H  0.37382192  0.76770529  0.72406972    -0.00300
H2437       H  0.37542655  0.77087608  0.77284387     0.01100
H2438       H  0.45197818  0.84593890  0.70560089     0.04800
H2439       H  0.46499909  0.84011816  0.73159021     0.06700
H2440       H  0.45344983  0.84872901  0.75428111     0.07600
C2441       C  0.25393602  0.75059730  0.71625607    -0.22000
C2442       C  0.24979605  0.73675417  0.74101824     0.10000
C2443       C  0.26312612  0.73945175  0.76607392     0.10400
C2444       C  0.28011392  0.75620380  0.76657382    -0.16900
C2445       C  0.28431261  0.77023458  0.74203146    -0.27300
C2446       C  0.27109157  0.76721898  0.71607543     0.18700
C2447       C  0.23199559  0.71898280  0.73813285     0.12700
C2448       C  0.25963212  0.72445250  0.79148826    -0.11700
H2449       H  0.29026101  0.75833995  0.78614129     0.12900
C2450       C  0.27528935  0.78075971  0.68641357    -0.22500
H2451       H  0.24380500  0.74816036  0.69634865     0.08600
C2452       C  0.21701914  0.71440609  0.76059034     0.04900
C2453       C  0.20082121  0.69697384  0.75776000    -0.19800
C2454       C  0.19920206  0.68410138  0.73273646    -0.12000
C2455       C  0.21378356  0.68938247  0.70819411     0.13600
C2456       C  0.23009192  0.70656077  0.71184577    -0.22500
C2457       C  0.21810793  0.72793927  0.78728644    -0.05600
H2458       H  0.18952583  0.69329993  0.77565464     0.15200
C2459       C  0.21249379  0.67768974  0.67686267    -0.15700
H2460       H  0.24140594  0.71039849  0.69371021     0.09500
H2461       H  0.27767494  0.79351205  0.69783004     0.07300
H2462       H  0.26387885  0.77544187  0.66686312     0.08500
H2463       H  0.28744709  0.78363967  0.67103436     0.07600
H2464       H  0.25661462  0.71239605  0.77551482     0.02500
H2465       H  0.24787744  0.72048170  0.80948900     0.02900
H2466       H  0.27160283  0.72873220  0.80891896     0.06400
H2467       H  0.20513594  0.72222101  0.80252590     0.05400
H2468       H  0.22105063  0.74026481  0.77253199    -0.00300
H2469       H  0.22909236  0.73196076  0.80723756     0.01100
H2470       H  0.21597056  0.68556893  0.65118475     0.04800
H2471       H  0.19869015  0.66528552  0.67326440     0.06700
H2472       H  0.22226249  0.67367015  0.68087823     0.07600
C2473       C  0.11699239  0.64362664  0.82985071    -0.22000
C2474       C  0.12768910  0.65752565  0.85491698     0.10000
C2475       C  0.14679965  0.66832154  0.85064455     0.10400
C2476       C  0.15479226  0.66492767  0.82139912    -0.16900
C2477       C  0.14412363  0.65110570  0.79620323    -0.27300
C2478       C  0.12495300  0.64029736  0.80042612     0.18700
C2479       C  0.11857230  0.66097146  0.88472589     0.12700
C2480       C  0.15873150  0.68344375  0.87688437    -0.11700
H2481       H  0.16946173  0.67285194  0.81862688     0.12900
C2482       C  0.11248072  0.62535707  0.77425322    -0.22500
H2483       H  0.10230916  0.63544417  0.83307934     0.08600
C2484       C  0.11171131  0.67186135  0.87907455     0.04900
C2485       C  0.10370657  0.67530555  0.90818947    -0.19800
C2486       C  0.10246651  0.66827224  0.94325267    -0.12000
C2487       C  0.10908658  0.65697406  0.94857299     0.13600
C2488       C  0.11701746  0.65348406  0.91917145    -0.22500
C2489       C  0.11317871  0.68015132  0.84239073    -0.05600
H2490       H  0.09874468  0.68394065  0.90352042     0.15200
C2491       C  0.10798380  0.64854317  0.98487118    -0.15700
H2492       H  0.12226903  0.64504349  0.92311061     0.09500
H2493       H  0.10272131  0.62821651  0.76266466     0.07300
H2494       H  0.10473330  0.61213479  0.78890000     0.08500
H2495       H  0.11981369  0.62403633  0.75125747     0.07600
H2496       H  0.15692362  0.67778183  0.90466161     0.02500
H2497       H  0.15498228  0.69355059  0.87697144     0.02900
H2498       H  0.17336637  0.69064279  0.86943122     0.06400
H2499       H  0.10729209  0.68847677  0.84261253     0.05400
H2500       H  0.10574828  0.66921266  0.82185728    -0.00300
H2501       H  0.12771324  0.68909778  0.83422034     0.01100
H2502       H  0.11333967  0.63975395  0.98351567     0.04800
H2503       H  0.09357566  0.63992471  0.99401692     0.06700
H2504       H  0.11622851  0.65936921  0.00517509     0.07600
C2505       C  0.13855006  0.65505243  0.60931993    -0.22000
C2506       C  0.12614056  0.65926621  0.62067710     0.10000
C2507       C  0.12265142  0.65931671  0.65811055     0.10400
C2508       C  0.13194520  0.65546773  0.68342016    -0.16900
C2509       C  0.14468972  0.65158211  0.67225876    -0.27300
C2510       C  0.14810648  0.65148751  0.63452230     0.18700
C2511       C  0.11785063  0.66471918  0.59300105     0.12700
C2512       C  0.10912855  0.66344366  0.67130311    -0.11700
H2513       H  0.12921820  0.65546905  0.71217234     0.12900
C2514       C  0.16232255  0.64870973  0.61953778    -0.22500
H2515       H  0.14131107  0.65522610  0.58051648     0.08600
C2516       C  0.12595052  0.68318818  0.58378156     0.04900
C2517       C  0.11753720  0.68786778  0.55800348    -0.19800
C2518       C  0.10143253  0.67449097  0.54043473    -0.12000
C2519       C  0.09338462  0.65591100  0.54955164     0.13600
C2520       C  0.10178789  0.65129580  0.57561634    -0.22500
C2521       C  0.14368486  0.69791566  0.60062669    -0.05600
H2522       H  0.12382381  0.70207011  0.55086764     0.15200
C2523       C  0.07566052  0.64062047  0.53367237    -0.15700
H2524       H  0.09562570  0.63711923  0.58281818     0.09500
H2525       H  0.17199189  0.66049932  0.60212180     0.07300
H2526       H  0.15563465  0.63614238  0.60277941     0.08500
H2527       H  0.17051046  0.64764718  0.64068572     0.07600
H2528       H  0.09550161  0.65336606  0.65983149     0.02500
H2529       H  0.11340965  0.67731233  0.66257206     0.02900
H2530       H  0.10793947  0.66281209  0.70140463     0.06400
H2531       H  0.14826438  0.71162492  0.59013994     0.05400
H2532       H  0.15442771  0.69540994  0.59428674    -0.00300
H2533       H  0.14214524  0.69799793  0.63054522     0.01100
H2534       H  0.07808041  0.63144556  0.51776093     0.04800
H2535       H  0.06898877  0.64533001  0.51592858     0.06700
H2536       H  0.06592995  0.63267506  0.55602527     0.07600
C2537       C  0.30567742  0.44849661  0.82716010    -0.22000
C2538       C  0.29913568  0.45182039  0.85891030     0.10000
C2539       C  0.29813234  0.46723136  0.86074385     0.10400
C2540       C  0.30320147  0.47867210  0.83023159    -0.16900
C2541       C  0.30923587  0.47499434  0.79813875    -0.27300
C2542       C  0.31074023  0.45991211  0.79676084     0.18700
C2543       C  0.29257526  0.43834553  0.88893356     0.12700
C2544       C  0.29145654  0.47139926  0.89458717    -0.11700
H2545       H  0.30234687  0.49046022  0.83126690     0.12900
C2546       C  0.31790743  0.45599640  0.76345400    -0.22500
H2547       H  0.30660098  0.43675312  0.82608563     0.08600
C2548       C  0.27591218  0.42126349  0.88613971     0.04900
C2549       C  0.27071166  0.40831244  0.91374702    -0.19800
C2550       C  0.28175287  0.41190643  0.94428672    -0.12000
C2551       C  0.29855764  0.42914578  0.94701227     0.13600
C2552       C  0.30357823  0.44218773  0.91946695    -0.22500
C2553       C  0.26349795  0.41676849  0.85414113    -0.05600
H2554       H  0.25778974  0.39527880  0.91154838     0.15200
C2555       C  0.31207708  0.43415372  0.97713337    -0.15700
H2556       H  0.31649790  0.45525979  0.92119918     0.09500
H2557       H  0.30911199  0.45376299  0.73988106     0.07300
H2558       H  0.31818202  0.44364850  0.76686522     0.08500
H2559       H  0.33202799  0.46770491  0.75805126     0.07600
H2560       H  0.30052462  0.47367510  0.91769728     0.02500
H2561       H  0.27739688  0.45980729  0.90105323     0.02900
H2562       H  0.29129903  0.48382114  0.89127015     0.06400
H2563       H  0.25073780  0.40301129  0.85670281     0.05400
H2564       H  0.27042689  0.41705584  0.82866408    -0.00300
H2565       H  0.25978648  0.42687874  0.85220611     0.01100
H2566       H  0.32558813  0.43888520  0.96517192     0.04800
H2567       H  0.30856096  0.42270988  0.99535725     0.06700
H2568       H  0.31336844  0.44539309  0.99351404     0.07600
C2569       C  0.31024450  0.45217214  0.63250309    -0.22000
C2570       C  0.29350745  0.44601428  0.61612597     0.10000
C2571       C  0.28342206  0.45321832  0.62736557     0.10400
C2572       C  0.29022476  0.46624892  0.65530435    -0.16900
C2573       C  0.30699538  0.47242265  0.67186185    -0.27300
C2574       C  0.31718857  0.46529636  0.66014615     0.18700
C2575       C  0.28653408  0.43140258  0.58843459     0.12700
C2576       C  0.26565428  0.44734832  0.60950726    -0.11700
H2577       H  0.28253246  0.47184649  0.66396659     0.12900
C2578       C  0.33509462  0.47058861  0.67660506    -0.22500
H2579       H  0.31785285  0.44646437  0.62394872     0.08600
C2580       C  0.29343189  0.43497723  0.55265339     0.04900
C2581       C  0.28681213  0.42050054  0.52791651    -0.19800
C2582       C  0.27347649  0.40240931  0.53806789    -0.12000
C2583       C  0.26666540  0.39893297  0.57433561     0.13600
C2584       C  0.27331578  0.41350000  0.59886642    -0.22500
C2585       C  0.30765162  0.45410042  0.54051346    -0.05600
H2586       H  0.29212587  0.42340762  0.50040932     0.15200
C2587       C  0.25239572  0.38006663  0.58781941    -0.15700
H2588       H  0.26826116  0.41093411  0.62658682     0.09500
H2589       H  0.34588706  0.47682247  0.65539575     0.07300
H2590       H  0.33395306  0.45822957  0.68729127     0.08500
H2591       H  0.33946172  0.48033281  0.69931133     0.07600
H2592       H  0.25567999  0.43250964  0.61349937     0.02500
H2593       H  0.26789741  0.45034944  0.57995289     0.02900
H2594       H  0.25970323  0.45459259  0.62103601     0.06400
H2595       H  0.31136125  0.45458515  0.51145957     0.05400
H2596       H  0.32018883  0.45966278  0.55689445    -0.00300
H2597       H  0.30238898  0.46288649  0.54408696     0.01100
H2598       H  0.24882254  0.38012079  0.61678404     0.04800
H2599       H  0.25755592  0.37113844  0.58563077     0.06700
H2600       H  0.23972341  0.37431981  0.57178425     0.07600
C2601       C  0.37342023  0.56270426  0.76423251    -0.22000
C2602       C  0.38457581  0.56913996  0.73346787     0.10000
C2603       C  0.37889956  0.55865724  0.70153938     0.10400
C2604       C  0.36236632  0.54152305  0.70152808    -0.16900
C2605       C  0.35106283  0.53451532  0.73271787    -0.27300
C2606       C  0.35650639  0.54597960  0.76406399     0.18700
C2607       C  0.40177152  0.58736147  0.73491133     0.12700
C2608       C  0.39011358  0.56578288  0.66718208    -0.11700
H2609       H  0.35830766  0.53415963  0.67627935     0.12900
C2610       C  0.34505933  0.54168292  0.79798250    -0.22500
H2611       H  0.37774269  0.57114801  0.78840265     0.08600
C2612       C  0.40184123  0.60329160  0.73336265     0.04900
C2613       C  0.41843889  0.62027045  0.73508120    -0.19800
C2614       C  0.43532112  0.62202205  0.73840031    -0.12000
C2615       C  0.43492156  0.60558098  0.73947533     0.13600
C2616       C  0.41818796  0.58864865  0.73799685    -0.22500
C2617       C  0.38433769  0.60236137  0.72929046    -0.05600
H2618       H  0.41765006  0.63196437  0.73325536     0.15200
C2619       C  0.45153951  0.60478326  0.74200788    -0.15700
H2620       H  0.41793168  0.57621765  0.73910234     0.09500
H2621       H  0.34351486  0.55312017  0.80374912     0.07300
H2622       H  0.35201642  0.54015985  0.82136538     0.08500
H2623       H  0.33114190  0.52933977  0.79632138     0.07600
H2624       H  0.40369961  0.56817193  0.67167629     0.02500
H2625       H  0.39186420  0.57879613  0.65917051     0.02900
H2626       H  0.38355852  0.55605470  0.64426656     0.06400
H2627       H  0.38677219  0.61611545  0.72756955     0.05400
H2628       H  0.37531395  0.59527491  0.75302256    -0.00300
H2629       H  0.37727540  0.59482713  0.70410904     0.01100
H2630       H  0.45074317  0.59749498  0.76725544     0.04800
H2631       H  0.46458885  0.61810488  0.74229946     0.06700
H2632       H  0.45191793  0.59717961  0.71832169     0.07600
C2633       C  0.15507487  0.55195025  0.75305006    -0.22000
C2634       C  0.17113056  0.56894802  0.74698501     0.10000
C2635       C  0.18772206  0.57024978  0.74416467     0.10400
C2636       C  0.18779322  0.55437824  0.74646643    -0.16900
C2637       C  0.17158112  0.53692648  0.75116948    -0.27300
C2638       C  0.15491013  0.53597569  0.75500969     0.18700
C2639       C  0.17005738  0.58509461  0.74292267     0.12700
C2640       C  0.20534821  0.58838781  0.73776717    -0.11700
H2641       H  0.20076325  0.55601712  0.74383998     0.12900
C2642       C  0.13634174  0.51858171  0.76054261    -0.22500
H2643       H  0.14236952  0.55109698  0.75561549     0.08600
C2644       C  0.16317513  0.58799189  0.71115996     0.04900
C2645       C  0.16185555  0.60311655  0.70894287    -0.19800
C2646       C  0.16712469  0.61563289  0.73789268    -0.12000
C2647       C  0.17485649  0.61289992  0.76931104     0.13600
C2648       C  0.17584847  0.59757206  0.77141644    -0.22500
C2649       C  0.15744450  0.57520678  0.67925336    -0.05600
H2650       H  0.15691758  0.60499147  0.68381148     0.15200
C2651       C  0.18244686  0.62561493  0.80158637    -0.15700
H2652       H  0.18131422  0.59535368  0.79566233     0.09500
H2653       H  0.12724191  0.51700291  0.73802189     0.07300
H2654       H  0.13041981  0.51942747  0.78655545     0.08500
H2655       H  0.13613791  0.50599664  0.76139664     0.07600
H2656       H  0.20805390  0.59770241  0.76078037     0.02500
H2657       H  0.20446280  0.59452784  0.71222795     0.02900
H2658       H  0.21709967  0.58704522  0.73533501     0.06400
H2659       H  0.15281872  0.57964959  0.65602550     0.05400
H2660       H  0.14601663  0.56133630  0.68727318    -0.00300
H2661       H  0.16910270  0.57465272  0.66987595     0.01100
H2662       H  0.17453062  0.61821492  0.82632211     0.04800
H2663       H  0.18235754  0.63800406  0.79909159     0.06700
H2664       H  0.19685467  0.63022715  0.80571676     0.07600
C2665       C  0.26354674  0.50895628  0.71148490    -0.22000
C2666       C  0.25083860  0.49907289  0.73908413     0.10000
C2667       C  0.25343063  0.48807254  0.76259808     0.10400
C2668       C  0.26950390  0.48838926  0.75968874    -0.16900
C2669       C  0.28264760  0.49895163  0.73299488    -0.27300
C2670       C  0.27914074  0.50863014  0.70742074     0.18700
C2671       C  0.23473796  0.50020793  0.74172623     0.12700
C2672       C  0.23911757  0.47574733  0.79009291    -0.11700
H2673       H  0.27195929  0.48061125  0.77867942     0.12900
C2674       C  0.29107009  0.51818151  0.67470340    -0.22500
H2675       H  0.26111415  0.51678503  0.69255916     0.08600
C2676       C  0.23401925  0.51194105  0.76674462     0.04900
C2677       C  0.21883882  0.51319908  0.76685769    -0.19800
C2678       C  0.20464231  0.50346615  0.74176408    -0.12000
C2679       C  0.20595858  0.49254424  0.71534823     0.13600
C2680       C  0.22084645  0.49083220  0.71609993    -0.22500
C2681       C  0.24958012  0.52368971  0.79226034    -0.05600
H2682       H  0.21805110  0.52186762  0.78661589     0.15200
C2683       C  0.19254619  0.48373127  0.68470604    -0.15700
H2684       H  0.22194344  0.48249703  0.69596090     0.09500
H2685       H  0.29742594  0.53308260  0.67708028     0.07300
H2686       H  0.28261936  0.51318169  0.64976099     0.08500
H2687       H  0.30188655  0.51558012  0.67092239     0.07600
H2688       H  0.22620072  0.46589569  0.77589886     0.02500
H2689       H  0.23663549  0.48377028  0.80948892     0.02900
H2690       H  0.24324271  0.46790445  0.80591368     0.06400
H2691       H  0.24696220  0.53238400  0.80940670     0.05400
H2692       H  0.26221955  0.53275471  0.77634457    -0.00300
H2693       H  0.25177621  0.51513336  0.81056231     0.01100
H2694       H  0.19665037  0.47713432  0.66485351     0.04800
H2695       H  0.19187037  0.49427971  0.66992302     0.06700
H2696       H  0.17891360  0.47301820  0.69508729     0.07600
C2697       C  0.15501829  0.45909477  0.86046973    -0.22000
C2698       C  0.13702889  0.45239827  0.87054173     0.10000
C2699       C  0.12764156  0.45905341  0.85316710     0.10400
C2700       C  0.13645206  0.47221622  0.82574805    -0.16900
C2701       C  0.15431248  0.47861862  0.81488148    -0.27300
C2702       C  0.16381832  0.47215271  0.83279683     0.18700
C2703       C  0.12833162  0.43852486  0.89965793     0.12700
C2704       C  0.10826455  0.45206458  0.86325396    -0.11700
H2705       H  0.12924566  0.47729273  0.81216241     0.12900
C2706       C  0.18340959  0.47945906  0.82404184    -0.22500
H2707       H  0.16217381  0.45405025  0.87438938     0.08600
C2708       C  0.12065121  0.41995198  0.89251112     0.04900
C2709       C  0.11262856  0.40732778  0.92105092    -0.19800
C2710       C  0.11202648  0.41278193  0.95675901    -0.12000
C2711       C  0.11969017  0.43155642  0.96363784     0.13600
C2712       C  0.12777057  0.44412479  0.93493760    -0.22500
C2713       C  0.12079421  0.41347061  0.85467435    -0.05600
H2714       H  0.10678297  0.39306577  0.91526177     0.15200
C2715       C  0.11955392  0.43865888  0.00084385    -0.15700
H2716       H  0.13371620  0.45847853  0.93995408     0.09500
H2717       H  0.18464334  0.47563687  0.79604982     0.07300
H2718       H  0.18903646  0.47387585  0.84263010     0.08500
H2719       H  0.19178764  0.49451027  0.82687936     0.07600
H2720       H  0.10751215  0.45506559  0.89226186     0.02500
H2721       H  0.09947480  0.43711373  0.85886747     0.02900
H2722       H  0.10284365  0.45851118  0.84662167     0.06400
H2723       H  0.11400769  0.39846184  0.85364807     0.05400
H2724       H  0.13504497  0.41994326  0.84509843    -0.00300
H2725       H  0.11351567  0.41716475  0.83592385     0.01100
H2726       H  0.12712688  0.43562046  0.02023017     0.04800
H2727       H  0.10530771  0.43233977  0.01032130     0.06700
H2728       H  0.12617084  0.45365301  0.00079228     0.07600
C2729       C  0.12687317  0.44673428  0.66639566    -0.22000
C2730       C  0.13404130  0.45203181  0.63117327     0.10000
C2731       C  0.14849441  0.47024143  0.62454465     0.10400
C2732       C  0.15554640  0.48266849  0.65348221    -0.16900
C2733       C  0.14884298  0.47720099  0.68901013    -0.27300
C2734       C  0.13406252  0.45908014  0.69541554     0.18700
C2735       C  0.12600605  0.43825145  0.60174301     0.12700
C2736       C  0.15689121  0.47641964  0.58730800    -0.11700
H2737       H  0.16679540  0.49661297  0.64860962     0.12900
C2738       C  0.12513177  0.45244383  0.73206085    -0.22500
H2739       H  0.11549386  0.43283841  0.67123430     0.08600
C2740       C  0.12851530  0.42379550  0.60035354     0.04900
C2741       C  0.11983886  0.41054674  0.57307686    -0.19800
C2742       C  0.10899318  0.41158549  0.54669415    -0.12000
C2743       C  0.10683393  0.42633649  0.54767605     0.13600
C2744       C  0.11523549  0.43937267  0.57544431    -0.22500
C2745       C  0.14058003  0.42250734  0.62725216    -0.05600
H2746       H  0.12169125  0.39939154  0.57211703     0.15200
C2747       C  0.09521699  0.42812135  0.52044332    -0.15700
H2748       H  0.11327318  0.45044664  0.57691126     0.09500
H2749       H  0.11033485  0.44661055  0.72972505     0.07300
H2750       H  0.13063068  0.46348404  0.75231713     0.08500
H2751       H  0.12701256  0.44174014  0.74210856     0.07600
H2752       H  0.14662577  0.47494759  0.56777684     0.02500
H2753       H  0.16201954  0.46806716  0.57801281     0.02900
H2754       H  0.16850130  0.49093464  0.58727141     0.06400
H2755       H  0.14156710  0.41072599  0.62143144     0.05400
H2756       H  0.13505274  0.42079638  0.65516718    -0.00300
H2757       H  0.15451918  0.43510401  0.62602652     0.01100
H2758       H  0.09435133  0.43995771  0.52650643     0.04800
H2759       H  0.08117818  0.41565695  0.52087139     0.06700
H2760       H  0.10115073  0.43017624  0.49281714     0.07600
loop_ 
_geom_bond_atom_site_label_1 
_geom_bond_atom_site_label_2 
_geom_bond_distance 
_geom_bond_site_symmetry_2 
_ccdc_geom_bond_type 
C1            C2   1.540       .  S
C1            C7   1.538       .  S
C1            C5   1.556       .  S
C1         C2637   1.545       .  S
C2            H9   1.086       .  S
C2            C3   1.364       .  D
C3            C4   1.536       .  S
C3         C2701   1.484       .  S
C4            C8   1.537       .  S
C4            C6   1.536       .  S
C4           H10   1.109       .  S
C5           H11   1.081       .  S
C5            C6   1.372       .  D
C6         C2678   1.490       .  S
C7           H12   1.087       .  S
C7            C8   1.360       .  D
C8         C2733   1.482       .  S
C13          C14   1.533       .  S
C13          C19   1.551       .  S
C13          C17   1.539       .  S
C13        C2605   1.537       .  S
C14          H21   1.087       .  S
C14          C15   1.364       .  D
C15          C16   1.538       .  S
C15        C2669   1.485       .  S
C16          C20   1.538       .  S
C16          C18   1.539       .  S
C16          H22   1.111       .  S
C17          H23   1.086       .  S
C17          C18   1.361       .  D
C18        C2541   1.480       .  S
C19          H24   1.081       .  S
C19          C20   1.367       .  D
C20        C2573   1.485       .  S
C25          C26   1.537       .  S
C25          C31   1.538       .  S
C25          C29   1.555       .  S
C25        C2646   1.545       .  S
C26          H33   1.087       .  S
C26          C27   1.362       .  D
C27          C28   1.540       .  S
C27        C2477   1.480       .  S
C28          C32   1.538       .  S
C28          C30   1.538       .  S
C28          H34   1.111       .  S
C29          H35   1.081       .  S
C29          C30   1.370       .  D
C30        C2509   1.491       .  S
C31          H36   1.086       .  S
C31          C32   1.366       .  D
C32        C2454   1.492       .  S
C37          C38   1.542       .  S
C37          C43   1.541       .  S
C37          C41   1.553       .  S
C37        C2413   1.552       .  S
C38          H45   1.086       .  S
C38          C39   1.366       .  D
C39          C40   1.538       .  S
C39        C2381   1.483       .  S
C40          C44   1.541       .  S
C40          C42   1.536       .  S
C40          H46   1.109       .  S
C41          H47   1.080       .  S
C41          C42   1.364       .  D
C42        C2358   1.489       .  S
C43          H48   1.086       .  S
C43          C44   1.368       .  D
C44        C2445   1.494       .  S
C49          C50   1.549       .  S
C49          C55   1.544       .  S
C49          C53   1.534       .  S
C49        C2614   1.544       .  S
C50          H57   1.080       .  S
C50          C51   1.365       .  D
C51          C52   1.538       .  S
C51        C2262   1.491       .  S
C52          C56   1.537       .  S
C52          C54   1.540       .  S
C52          H58   1.111       .  S
C53          H59   1.087       .  S
C53          C54   1.362       .  D
C54        C2326   1.479       .  S
C55          H60   1.086       .  S
C55          C56   1.367       .  D
C56        C2294   1.485       .  S
C61          C62   1.537       .  S
C61          C67   1.542       .  S
C61          C65   1.559       .  S
C61        C2422   1.549       .  S
C62          H69   1.086       .  S
C62          C63   1.360       .  D
C63          C64   1.536       .  S
C63        C2230   1.480       .  S
C64          C68   1.537       .  S
C64          C66   1.534       .  S
C64          H70   1.109       .  S
C65          H71   1.080       .  S
C65          C66   1.371       .  D
C66        C2253   1.493       .  S
C67          H72   1.086       .  S
C67          C68   1.367       .  D
C68        C2198   1.488       .  S
C73          C74   1.540       .  S
C73          C79   1.539       .  S
C73          C77   1.551       .  S
C73        C2061   1.540       .  S
C74          H81   1.084       .  S
C74          C75   1.364       .  D
C75          C76   1.537       .  S
C75        C2166   1.484       .  S
C76          C80   1.534       .  S
C76          C78   1.532       .  S
C76          H82   1.111       .  S
C77          H83   1.080       .  S
C77          C78   1.366       .  D
C78        C2093   1.480       .  S
C79          H84   1.086       .  S
C79          C80   1.363       .  D
C80        C2125   1.481       .  S
C85          C86   1.539       .  S
C85          C91   1.536       .  S
C85          C89   1.555       .  S
C85        C2070   1.543       .  S
C86          H93   1.086       .  S
C86          C87   1.362       .  D
C87          C88   1.535       .  S
C87        C1997   1.475       .  S
C88          C92   1.537       .  S
C88          C90   1.535       .  S
C88          H94   1.109       .  S
C89          H95   1.081       .  S
C89          C90   1.367       .  D
C90        C2029   1.488       .  S
C91          H96   1.087       .  S
C91          C92   1.364       .  D
C92        C1974   1.486       .  S
C97          C98   1.532       .  S
C97         C103   1.552       .  S
C97         C101   1.540       .  S
C97        C1933   1.543       .  S
C98         H105   1.087       .  S
C98          C99   1.359       .  D
C99         C100   1.545       .  S
C99        C1869   1.478       .  S
C100        C104   1.539       .  S
C100        C102   1.538       .  S
C100        H106   1.110       .  S
C101        H107   1.086       .  S
C101        C102   1.367       .  D
C102       C1901   1.490       .  S
C103        H108   1.079       .  S
C103        C104   1.370       .  D
C104       C1965   1.500       .  S
C109        C110   1.550       .  S
C109        C115   1.542       .  S
C109        C113   1.536       .  S
C109       C1942   1.538       .  S
C110        H117   1.081       .  S
C110        C111   1.365       .  D
C111        C112   1.533       .  S
C111       C1837   1.480       .  S
C112        C116   1.537       .  S
C112        C114   1.533       .  S
C112        H118   1.110       .  S
C113        H119   1.086       .  S
C113        C114   1.363       .  D
C114       C1773   1.479       .  S
C115        H120   1.086       .  S
C115        C116   1.364       .  D
C116       C1805   1.486       .  S
C121        C122   1.531       .  S
C121        C127   1.554       .  S
C121        C125   1.535       .  S
C121       C1686   1.538       .  S
C122        H129   1.085       .  S
C122        C123   1.361       .  D
C123        C124   1.540       .  S
C123       C1782   1.482       .  S
C124        C128   1.536       .  S
C124        C126   1.537       .  S
C124        H130   1.111       .  S
C125        H131   1.086       .  S
C125        C126   1.362       .  D
C126       C1709   1.475       .  S
C127        H132   1.079       .  S
C127        C128   1.367       .  D
C128       C1741   1.489       .  S
C133        C134   1.533       .  S
C133        C139   1.549       .  S
C133        C137   1.538       .  S
C133       C1677   1.539       .  S
C134        H141   1.087       .  S
C134        C135   1.360       .  D
C135        C136   1.547       .  S
C135       C1622   1.483       .  S
C136        C140   1.541       .  S
C136        C138   1.537       .  S
C136        H142   1.110       .  S
C137        H143   1.086       .  S
C137        C138   1.364       .  D
C138       C1654   1.485       .  S
C139        H144   1.079       .  S
C139        C140   1.369       .  D
C140       C2102   1.494       .  S
O145        C148   1.267       .  A
O145       Cd150   2.472       .  S
C146        O155   1.263       .  A
C146        O151   1.267   1_554  A
C146       C2157   1.490       .  S
O147        C153   1.268       .  A
O147       Cd150   2.494       .  S
C148        O156   1.266       .  A
C148       C1517   1.480       .  S
C149        O154   1.268       .  A
C149        O152   1.264       .  A
C149       C1590   1.478       .  S
Cd150       O157   2.429       .  S
Cd150       O156   2.445       .  S
Cd150       O155   2.444   1_556  S
Cd150       O151   2.472       .  S
Cd150       O154   2.488       .  S
Cd150       O152   2.430       .  S
C153        O157   1.263       .  A
C153       C1549   1.477       .  S
O158        C161   1.268       .  A
O158       Cd163   2.496       .  S
C159        O168   1.265       .  A
C159        O164   1.267   1_556  A
C159       C2349   1.494       .  S
O160        C166   1.267       .  A
O160       Cd163   2.492       .  S
C161        O169   1.264       .  A
C161       C1453   1.493       .  S
C162        O167   1.265       .  A
C162        O165   1.266       .  A
C162       C1581   1.491       .  S
Cd163       O170   2.437       .  S
Cd163       O169   2.457       .  S
Cd163       O168   2.454   1_554  S
Cd163       O164   2.492       .  S
Cd163       O167   2.482       .  S
Cd163       O165   2.459       .  S
C166        O170   1.265       .  A
C166       C1485   1.483       .  S
O171        C174   1.268       .  A
O171       Cd176   2.479       .  S
C172        O181   1.263       .  A
C172        O177   1.266   1_554  A
C172       C1910   1.478       .  S
O173        C179   1.266       .  A
O173       Cd176   2.467       .  S
C174        O182   1.263       .  A
C174       C1357   1.487       .  S
C175        O180   1.264       .  A
C175        O178   1.265       .  A
C175       C1389   1.476       .  S
Cd176       O183   2.427       .  S
Cd176       O182   2.428       .  S
Cd176       O181   2.451   1_556  S
Cd176       O177   2.488       .  S
Cd176       O180   2.458       .  S
Cd176       O178   2.455       .  S
C179        O183   1.265       .  A
C179       C1421   1.482       .  S
O184        C187   1.266       .  A
O184       Cd189   2.487       .  S
C185        O194   1.267       .  A
C185        O190   1.267   1_556  A
C185       C2710   1.492       .  S
O186        C192   1.266       .  A
O186       Cd189   2.490       .  S
C187        O195   1.263       .  A
C187       C1302   1.480       .  S
C188        O193   1.266       .  A
C188        O191   1.264       .  A
C188       C1398   1.472       .  S
Cd189       O196   2.432       .  S
Cd189       O195   2.453       .  S
Cd189       O194   2.454   1_554  S
Cd189       O190   2.460       .  S
Cd189       O193   2.469       .  S
Cd189       O191   2.441       .  S
C192        O196   1.264       .  A
C192       C1334   1.481       .  S
O197        C200   1.265   1_556  A
O197       Cd202   2.467       .  S
C198        O207   1.264       .  A
C198        O203   1.265       .  A
C198       C1229   1.475       .  S
O199        C205   1.268       .  A
O199       Cd202   2.477       .  S
C200        O208   1.265       .  A
C200       C2006   1.490       .  S
C201        O206   1.264       .  A
C201        O204   1.264       .  A
C201       C1270   1.481       .  S
Cd202       O209   2.412       .  S
Cd202       O208   2.456   1_556  S
Cd202       O207   2.454       .  S
Cd202       O203   2.471       .  S
Cd202       O206   2.472       .  S
Cd202       O204   2.445       .  S
C205        O209   1.264       .  A
C205       C1430   1.474       .  S
O210        C213   1.268       .  A
O210       Cd215   2.478   1_556  S
C211        O220   1.265       .  A
C211        O216   1.267       .  A
C211       C1174   1.492       .  S
O212        C218   1.269       .  A
O212       Cd215   2.505       .  S
C213        O221   1.265       .  A
C213       C2189   1.484       .  S
C214        O219   1.269       .  A
C214        O217   1.262       .  A
C214       C1261   1.483       .  S
Cd215       O222   2.412       .  S
Cd215       O221   2.474   1_554  S
Cd215       O220   2.450       .  S
Cd215       O216   2.495       .  S
Cd215       O219   2.492       .  S
Cd215       O217   2.414       .  S
C218        O222   1.264       .  A
C218       C1206   1.484       .  S
O223        C226   1.268       .  A
O223       Cd228   2.501       .  S
C224        O233   1.265       .  A
C224        O229   1.268   1_556  A
C224       C2486   1.497       .  S
O225        C231   1.267       .  A
O225       Cd228   2.486       .  S
C226        O234   1.262       .  A
C226       C1110   1.489       .  S
C227        O232   1.269       .  A
C227        O230   1.266       .  A
C227       C1494   1.480       .  S
Cd228       O235   2.470       .  S
Cd228       O234   2.454       .  S
Cd228       O233   2.456   1_554  S
Cd228       O229   2.503       .  S
Cd228       O232   2.478       .  S
Cd228       O230   2.439       .  S
C231        O235   1.264       .  A
C231       C1133   1.493       .  S
O236        C239   1.266   1_556  A
O236       Cd241   2.485       .  S
C237        O246   1.266       .  A
C237        O242   1.267       .  A
C237       C1037   1.477       .  S
O238        C244   1.268       .  A
O238       Cd241   2.509       .  S
C239        O247   1.264       .  A
C239       C1814   1.476       .  S
C240        O245   1.268       .  A
C240        O243   1.265       .  A
C240       C1142   1.483       .  S
Cd241       O248   2.439       .  S
Cd241       O247   2.449   1_556  S
Cd241       O246   2.446       .  S
Cd241       O242   2.477       .  S
Cd241       O245   2.497       .  S
Cd241       O243   2.447       .  S
C244        O248   1.264       .  A
C244       C1069   1.489       .  S
O249        C252   1.268       .  A
O249       Cd254   2.474       .  S
C250        O259   1.265       .  A
C250        O255   1.266   1_554  A
C250       C1750   1.490       .  S
O251        C257   1.267       .  A
O251       Cd254   2.496       .  S
C252        O260   1.265       .  A
C252        C973   1.476       .  S
C253        O258   1.267       .  A
C253        O256   1.264       .  A
C253       C1005   1.484       .  S
Cd254       O261   2.451       .  S
Cd254       O260   2.434       .  S
Cd254       O259   2.447   1_556  S
Cd254       O255   2.474       .  S
Cd254       O258   2.484       .  S
Cd254       O256   2.463       .  S
C257        O261   1.264       .  A
C257       C1078   1.480       .  S
O262        C265   1.267       .  A
O262       Cd267   2.488   1_556  S
C263        O272   1.264       .  A
C263        O268   1.267       .  A
C263        C941   1.481       .  S
O264        C270   1.267   1_554  A
O264       Cd267   2.491       .  S
C265        O273   1.265       .  A
C265       C2285   1.483       .  S
C266        O271   1.268   1_554  A
C266        O269   1.264       .  A
C266       C1197   1.483       .  S
Cd267       O274   2.467       .  S
Cd267       O273   2.463   1_554  S
Cd267       O272   2.453       .  S
Cd267       O268   2.493       .  S
Cd267       O271   2.501   1_554  S
Cd267       O269   2.440       .  S
C270        O274   1.264   1_556  A
C270       C1014   1.483       .  S
O275        C278   1.268       .  A
O275       Cd280   2.493       .  S
C276        O285   1.266       .  A
C276        O281   1.268       .  A
C276        C877   1.484       .  S
O277        C283   1.270       .  A
O277       Cd280   2.502       .  S
C278        O286   1.265   1_556  A
C278       C1613   1.493   1_556  S
C279        O284   1.269       .  A
C279        O282   1.265       .  A
C279        C909   1.485       .  S
Cd280       O287   2.423       .  S
Cd280       O286   2.452   1_556  S
Cd280       O285   2.454       .  S
Cd280       O281   2.485       .  S
Cd280       O284   2.499       .  S
Cd280       O282   2.456       .  S
C283        O287   1.264       .  A
C283       C1558   1.480       .  S
O288        C291   1.267   1_554  A
O288       Cd293   2.490       .  S
C289        O298   1.265       .  A
C289        O294   1.267       .  A
C289        C845   1.486       .  S
O290        C296   1.268       .  A
O290       Cd293   2.506       .  S
C291        O299   1.266       .  A
C291       C2550   1.488       .  S
C292        O297   1.267       .  A
C292        O295   1.266       .  A
C292        C918   1.499   1_554  S
Cd293       O300   2.426       .  S
Cd293       O299   2.456   1_554  S
Cd293       O298   2.455       .  S
Cd293       O294   2.491       .  S
Cd293       O297   2.492       .  S
Cd293       O295   2.477       .  S
C296        O300   1.263       .  A
C296       C1325   1.479       .  S
O301        C304   1.267       .  A
O301       Cd306   2.471       .  S
C302        O311   1.264       .  A
C302        O307   1.266       .  A
C302       C1526   1.480       .  S
O303        C309   1.267       .  A
O303       Cd306   2.498       .  S
C304        O312   1.266       .  A
C304       C2134   1.479       .  S
C305        O310   1.267       .  A
C305        O308   1.263       .  A
C305        C813   1.474       .  S
Cd306       O313   2.432       .  S
Cd306       O312   2.437       .  S
Cd306       O311   2.454       .  S
Cd306       O307   2.477       .  S
Cd306       O310   2.481       .  S
Cd306       O308   2.442       .  S
C309        O313   1.263       .  A
C309        C790   1.475       .  S
O314        C317   1.268       .  A
O314       Cd319   2.477       .  S
C315        O324   1.262       .  A
C315        O320   1.267       .  A
C315       C1462   1.473       .  S
O316        C322   1.266       .  A
O316       Cd319   2.473       .  S
C317        O325   1.265       .  A
C317       C2390   1.482       .  S
C318        O323   1.266       .  A
C318        O321   1.266       .  A
C318        C822   1.477       .  S
Cd319       O326   2.434       .  S
Cd319       O325   2.440       .  S
Cd319       O324   2.436       .  S
Cd319       O320   2.496       .  S
Cd319       O323   2.453       .  S
Cd319       O321   2.461       .  S
C322        O326   1.265       .  A
C322        C749   1.471       .  S
O327        C330   1.266       .  A
O327       Cd332   2.479       .  S
C328        O337   1.263       .  A
C328        O333   1.266       .  A
C328       C1366   1.477       .  S
O329        C335   1.268       .  A
O329       Cd332   2.483       .  S
C330        O338   1.265       .  A
C330       C1878   1.491       .  S
C331        O336   1.265       .  A
C331        O334   1.264       .  A
C331        C685   1.477       .  S
Cd332       O339   2.432       .  S
Cd332       O338   2.456       .  S
Cd332       O337   2.444       .  S
Cd332       O333   2.500       .  S
Cd332       O336   2.480       .  S
Cd332       O334   2.470       .  S
C335        O339   1.265       .  A
C335        C717   1.482       .  S
O340        C343   1.265       .  A
O340       Cd345   2.468       .  S
C341        O350   1.264       .  A
C341        O346   1.264       .  A
C341       C1293   1.482       .  S
O342        C348   1.269       .  A
O342       Cd345   2.503       .  S
C343        O351   1.266       .  A
C343       C2742   1.483       .  S
C344        O349   1.266       .  A
C344        O347   1.263       .  A
C344        C694   1.485       .  S
Cd345       O352   2.433       .  S
Cd345       O351   2.465       .  S
Cd345       O350   2.465       .  S
Cd345       O346   2.491       .  S
Cd345       O349   2.507       .  S
Cd345       O347   2.464       .  S
C348        O352   1.265       .  A
C348        C662   1.482       .  S
O353        C356   1.270       .  A
O353       Cd358   2.502       .  S
C354        O363   1.265       .  A
C354        O359   1.267       .  A
C354       C2038   1.494       .  S
O355        C361   1.267       .  A
O355       Cd358   2.484       .  S
C356        O364   1.262       .  A
C356       C1238   1.487       .  S
C357        O362   1.268       .  A
C357        O360   1.265       .  A
C357        C621   1.488       .  S
Cd358       O365   2.426       .  S
Cd358       O364   2.419       .  S
Cd358       O363   2.453       .  S
Cd358       O359   2.483       .  S
Cd358       O362   2.473       .  S
Cd358       O360   2.443       .  S
C361        O365   1.264       .  A
C361        C726   1.475       .  S
O366        C369   1.268       .  A
O366       Cd371   2.480       .  S
C367        O376   1.265       .  A
C367        O372   1.266       .  A
C367       C2221   1.494       .  S
O368        C374   1.269       .  A
O368       Cd371   2.506       .  S
C369        O377   1.265       .  A
C369       C1165   1.475       .  S
C370        O375   1.269       .  A
C370        O373   1.263       .  A
C370        C630   1.487       .  S
Cd371       O378   2.420       .  S
Cd371       O377   2.444       .  S
Cd371       O376   2.456       .  S
Cd371       O372   2.484       .  S
Cd371       O375   2.499       .  S
Cd371       O373   2.436       .  S
C374        O378   1.263       .  A
C374        C598   1.482       .  S
O379        C382   1.267       .  A
O379       Cd384   2.502       .  S
C380        O389   1.264       .  A
C380        O385   1.267       .  A
C380       C2518   1.483       .  S
O381        C387   1.266       .  A
O381       Cd384   2.475       .  S
C382        O390   1.264       .  A
C382       C1101   1.485       .  S
C383        O388   1.264       .  A
C383        O386   1.266       .  A
C383        C557   1.484       .  S
Cd384       O391   2.439       .  S
Cd384       O390   2.453       .  S
Cd384       O389   2.467       .  S
Cd384       O385   2.489       .  S
Cd384       O388   2.471       .  S
Cd384       O386   2.477       .  S
C387        O391   1.266       .  A
C387        C758   1.486       .  S
O392        C395   1.267       .  A
O392       Cd397   2.478       .  S
C393        O402   1.263       .  A
C393        O398   1.267       .  A
C393       C1846   1.491       .  S
O394        C400   1.268       .  A
O394       Cd397   2.507       .  S
C395        O403   1.267       .  A
C395       C1046   1.487       .  S
C396        O401   1.267       .  A
C396        O399   1.263       .  A
C396        C566   1.486       .  S
Cd397       O404   2.438       .  S
Cd397       O403   2.431       .  S
Cd397       O402   2.444       .  S
Cd397       O398   2.478       .  S
Cd397       O401   2.508       .  S
Cd397       O399   2.461       .  S
C400        O404   1.263       .  A
C400        C525   1.483       .  S
O405        C408   1.269       .  A
O405       Cd410   2.492       .  S
C406        O415   1.265       .  A
C406        O411   1.269       .  A
C406       C1718   1.481       .  S
O407        C413   1.268       .  A
O407       Cd410   2.481       .  S
C408        O416   1.263       .  A
C408        C982   1.477       .  S
C409        O414   1.269       .  A
C409        O412   1.266       .  A
C409        C534   1.493       .  S
Cd410       O417   2.454       .  S
Cd410       O416   2.412       .  S
Cd410       O415   2.433       .  S
Cd410       O411   2.483       .  S
Cd410       O414   2.485       .  S
Cd410       O412   2.437       .  S
C413        O417   1.264       .  A
C413        C493   1.494       .  S
O418        C421   1.267       .  A
O418       Cd423   2.488       .  S
C419        O428   1.266       .  A
C419        O424   1.267       .  A
C419       C2317   1.496       .  S
O420        C426   1.267       .  A
O420       Cd423   2.489       .  S
C421        O429   1.264       .  A
C421        C950   1.477       .  S
C422        O427   1.268       .  A
C422        O425   1.263       .  A
C422        C589   1.475       .  S
Cd423       O430   2.452       .  S
Cd423       O429   2.447       .  S
Cd423       O428   2.452       .  S
Cd423       O424   2.492       .  S
Cd423       O427   2.500       .  S
Cd423       O425   2.426       .  S
C426        O430   1.266       .  A
C426        C502   1.481       .  S
O431        C434   1.267       .  A
O431       Cd436   2.490       .  S
C432        O441   1.264       .  A
C432        O437   1.268       .  A
C432        C886   1.481       .  S
O433        C439   1.267       .  A
O433       Cd436   2.492       .  S
C434        O442   1.263       .  A
C434       C1645   1.474       .  S
C435        O440   1.269       .  A
C435        O438   1.265       .  A
C435        C781   1.482       .  S
Cd436       O443   2.460       .  S
Cd436       O442   2.442       .  S
Cd436       O441   2.434       .  S
Cd436       O437   2.486       .  S
Cd436       O440   2.494       .  S
Cd436       O438   2.429       .  S
C439        O443   1.264       .  A
C439        C461   1.483       .  S
O444        C447   1.267       .  A
O444       Cd449   2.486       .  S
C445        O454   1.264       .  A
C445        O450   1.268       .  A
C445       C2582   1.495       .  S
O446        C452   1.268       .  A
O446       Cd449   2.501       .  S
C447        O455   1.265       .  A
C447        C854   1.480       .  S
C448        O453   1.266       .  A
C448        O451   1.265       .  A
C448        C470   1.487       .  S
Cd449       O456   2.429       .  S
Cd449       O455   2.454       .  S
Cd449       O454   2.460       .  S
Cd449       O450   2.482       .  S
Cd449       O453   2.492       .  S
Cd449       O451   2.462       .  S
C452        O456   1.264       .  A
C452        C653   1.482       .  S
C457        C458   1.402       .  A
C457        C462   1.406       .  A
C457        H467   1.084       .  S
C458        C463   1.485       .  S
C458        C459   1.411       .  A
C459        C464   1.507       .  S
C459        C460   1.404       .  A
C460        C461   1.406       .  A
C460        H465   1.084       .  S
C461        C462   1.419       .  A
C462        C466   1.508       .  S
C463        C468   1.410       .  A
C463        C472   1.401       .  A
C464        H480   1.110       .  S
C464        H481   1.110       .  S
C464        H482   1.111       .  S
C466        H477   1.111       .  S
C466        H478   1.110       .  S
C466        H479   1.105       .  S
C468        C473   1.507       .  S
C468        C469   1.403       .  A
C469        C470   1.406       .  A
C469        H474   1.084       .  S
C470        C471   1.421       .  A
C471        C475   1.508       .  S
C471        C472   1.407       .  A
C472        H476   1.085       .  S
C473        H483   1.111       .  S
C473        H484   1.110       .  S
C473        H485   1.110       .  S
C475        H486   1.111       .  S
C475        H487   1.104       .  S
C475        H488   1.111       .  S
C489        C490   1.399       .  A
C489        C494   1.405       .  A
C489        H499   1.084       .  S
C490        C495   1.483       .  S
C490        C491   1.408       .  A
C491        C496   1.505       .  S
C491        C492   1.406       .  A
C492        C493   1.410       .  A
C492        H497   1.083       .  S
C493        C494   1.423       .  A
C494        C498   1.508       .  S
C495        C500   1.409       .  A
C495        C504   1.401       .  A
C496        H512   1.110       .  S
C496        H513   1.110       .  S
C496        H514   1.111       .  S
C498        H509   1.111       .  S
C498        H510   1.110       .  S
C498        H511   1.110       .  S
C500        C505   1.506       .  S
C500        C501   1.403       .  A
C501        C502   1.405       .  A
C501        H506   1.084       .  S
C502        C503   1.419       .  A
C503        C507   1.507       .  S
C503        C504   1.406       .  A
C504        H508   1.085       .  S
C505        H515   1.111       .  S
C505        H516   1.110       .  S
C505        H517   1.110       .  S
C507        H518   1.111       .  S
C507        H519   1.105       .  S
C507        H520   1.111       .  S
C521        C522   1.400       .  A
C521        C526   1.402       .  A
C521        H531   1.084       .  S
C522        C527   1.484       .  S
C522        C523   1.411       .  A
C523        C528   1.506       .  S
C523        C524   1.407       .  A
C524        C525   1.406       .  A
C524        H529   1.084       .  S
C525        C526   1.418       .  A
C526        C530   1.508       .  S
C527        C532   1.409       .  A
C527        C536   1.401       .  A
C528        H544   1.110       .  S
C528        H545   1.110       .  S
C528        H546   1.111       .  S
C530        H541   1.110       .  S
C530        H542   1.111       .  S
C530        H543   1.108       .  S
C532        C537   1.508       .  S
C532        C533   1.401       .  A
C533        C534   1.408       .  A
C533        H538   1.084       .  S
C534        C535   1.421       .  A
C535        C539   1.506       .  S
C535        C536   1.409       .  A
C536        H540   1.084       .  S
C537        H547   1.111       .  S
C537        H548   1.110       .  S
C537        H549   1.110       .  S
C539        H550   1.110       .  S
C539        H551   1.110       .  S
C539        H552   1.111       .  S
C553        C554   1.400       .  A
C553        C558   1.406   1_655  A
C553        H563   1.085       .  S
C554        C559   1.485       .  S
C554        C555   1.410       .  A
C555        C560   1.506       .  S
C555        C556   1.404   1_655  A
C556        C557   1.405       .  A
C556        H561   1.084       .  S
C557        C558   1.422       .  A
C558        C562   1.510       .  S
C559        C564   1.410       .  A
C559        C568   1.400       .  A
C560        H576   1.110       .  S
C560        H577   1.110       .  S
C560        H578   1.111       .  S
C562        H573   1.110       .  S
C562        H574   1.111       .  S
C562        H575   1.105       .  S
C564        C569   1.505       .  S
C564        C565   1.408       .  A
C565        C566   1.407       .  A
C565        H570   1.084       .  S
C566        C567   1.419       .  A
C567        C571   1.508       .  S
C567        C568   1.403       .  A
C568        H572   1.085       .  S
C569        H579   1.111       .  S
C569        H580   1.110       .  S
C569        H581   1.110       .  S
C571        H582   1.111       .  S
C571        H583   1.106       .  S
C571        H584   1.110       .  S
C585        C586   1.399       .  A
C585        C590   1.400       .  A
C585        H595   1.085       .  S
C586        C591   1.481       .  S
C586        C587   1.411       .  A
C587        C592   1.505       .  S
C587        C588   1.408       .  A
C588        C589   1.405       .  A
C588        H593   1.084       .  S
C589        C590   1.417       .  A
C590        C594   1.510       .  S
C591        C596   1.409       .  A
C591        C600   1.402       .  A
C592        H608   1.110       .  S
C592        H609   1.109       .  S
C592        H610   1.111       .  S
C594        H605   1.110       .  S
C594        H606   1.111       .  S
C594        H607   1.107       .  S
C596        C601   1.508       .  S
C596        C597   1.400       .  A
C597        C598   1.406       .  A
C597        H602   1.085       .  S
C598        C599   1.420       .  A
C599        C603   1.508       .  S
C599        C600   1.407       .  A
C600        H604   1.085       .  S
C601        H611   1.111       .  S
C601        H612   1.110       .  S
C601        H613   1.109       .  S
C603        H614   1.111       .  S
C603        H615   1.104       .  S
C603        H616   1.110       .  S
C617        C618   1.399   1_545  A
C617        C622   1.404       .  A
C617        H627   1.084   1_545  S
C618        C623   1.481       .  S
C618        C619   1.408   1_565  A
C619        C624   1.506       .  S
C619        C620   1.405       .  A
C620        C621   1.408       .  A
C620        H625   1.084       .  S
C621        C622   1.421       .  A
C622        C626   1.508       .  S
C623        C628   1.409       .  A
C623        C632   1.399       .  A
C624        H640   1.110       .  S
C624        H641   1.110       .  S
C624        H642   1.111       .  S
C626        H637   1.111       .  S
C626        H638   1.109       .  S
C626        H639   1.111       .  S
C628        C633   1.506       .  S
C628        C629   1.406       .  A
C629        C630   1.407       .  A
C629        H634   1.084       .  S
C630        C631   1.421       .  A
C631        C635   1.509       .  S
C631        C632   1.404       .  A
C632        H636   1.084       .  S
C633        H643   1.111       .  S
C633        H644   1.110       .  S
C633        H645   1.110       .  S
C635        H646   1.111       .  S
C635        H647   1.109       .  S
C635        H648   1.111       .  S
C649        C650   1.402       .  A
C649        C654   1.407       .  A
C649        H659   1.084       .  S
C650        C655   1.481       .  S
C650        C651   1.410       .  A
C651        C656   1.509       .  S
C651        C652   1.400       .  A
C652        C653   1.405       .  A
C652        H657   1.084       .  S
C653        C654   1.421       .  A
C654        C658   1.508       .  S
C655        C660   1.411       .  A
C655        C664   1.399       .  A
C656        H672   1.110       .  S
C656        H673   1.108       .  S
C656        H674   1.111       .  S
C658        H669   1.110       .  S
C658        H670   1.111       .  S
C658        H671   1.103       .  S
C660        C665   1.506       .  S
C660        C661   1.409       .  A
C661        C662   1.407       .  A
C661        H666   1.084       .  S
C662        C663   1.418       .  A
C663        C667   1.509       .  S
C663        C664   1.399       .  A
C664        H668   1.085       .  S
C665        H675   1.111       .  S
C665        H676   1.110       .  S
C665        H677   1.109       .  S
C667        H678   1.111       .  S
C667        H679   1.107       .  S
C667        H680   1.110       .  S
C681        C682   1.401       .  A
C681        C686   1.405       .  A
C681        H691   1.084       .  S
C682        C687   1.484       .  S
C682        C683   1.411       .  A
C683        C688   1.506       .  S
C683        C684   1.405       .  A
C684        C685   1.404       .  A
C684        H689   1.084       .  S
C685        C686   1.417       .  A
C686        C690   1.508       .  S
C687        C692   1.409   1_655  A
C687        C696   1.401       .  A
C688        H704   1.110       .  S
C688        H705   1.110       .  S
C688        H706   1.111       .  S
C690        H701   1.111       .  S
C690        H702   1.110       .  S
C690        H703   1.106       .  S
C692        C697   1.507   1_455  S
C692        C693   1.403       .  A
C693        C694   1.406       .  A
C693        H698   1.084       .  S
C694        C695   1.421       .  A
C695        C699   1.508       .  S
C695        C696   1.407   1_455  A
C696        H700   1.084       .  S
C697        H707   1.111   1_655  S
C697        H708   1.110       .  S
C697        H709   1.110       .  S
C699        H710   1.110       .  S
C699        H711   1.104       .  S
C699        H712   1.111       .  S
C713        C714   1.400       .  A
C713        C718   1.406       .  A
C713        H723   1.085       .  S
C714        C719   1.479       .  S
C714        C715   1.408       .  A
C715        C720   1.508       .  S
C715        C716   1.400       .  A
C716        C717   1.406       .  A
C716        H721   1.084       .  S
C717        C718   1.421       .  A
C718        C722   1.508       .  S
C719        C724   1.410       .  A
C719        C728   1.400       .  A
C720        H736   1.110       .  S
C720        H737   1.110       .  S
C720        H738   1.111       .  S
C722        H733   1.110       .  S
C722        H734   1.111       .  S
C722        H735   1.104       .  S
C724        C729   1.505       .  S
C724        C725   1.405       .  A
C725        C726   1.404       .  A
C725        H730   1.084       .  S
C726        C727   1.418       .  A
C727        C731   1.510       .  S
C727        C728   1.400       .  A
C728        H732   1.085       .  S
C729        H739   1.111       .  S
C729        H740   1.110       .  S
C729        H741   1.110       .  S
C731        H742   1.111       .  S
C731        H743   1.107       .  S
C731        H744   1.110       .  S
C745        C746   1.400       .  A
C745        C750   1.400       .  A
C745        H755   1.085       .  S
C746        C751   1.476       .  S
C746        C747   1.410       .  A
C747        C752   1.506       .  S
C747        C748   1.404       .  A
C748        C749   1.404       .  A
C748        H753   1.084       .  S
C749        C750   1.416       .  A
C750        C754   1.509       .  S
C751        C756   1.408       .  A
C751        C760   1.400       .  A
C752        H768   1.110       .  S
C752        H769   1.110       .  S
C752        H770   1.111       .  S
C754        H765   1.110       .  S
C754        H766   1.111       .  S
C754        H767   1.108       .  S
C756        C761   1.508       .  S
C756        C757   1.399       .  A
C757        C758   1.406       .  A
C757        H762   1.084       .  S
C758        C759   1.421       .  A
C759        C763   1.507       .  S
C759        C760   1.406       .  A
C760        H764   1.084       .  S
C761        H771   1.111       .  S
C761        H772   1.110       .  S
C761        H773   1.110       .  S
C763        H774   1.111       .  S
C763        H775   1.110       .  S
C763        H776   1.110       .  S
C777        C778   1.401       .  A
C777        C782   1.407       .  A
C777        H787   1.085       .  S
C778        C783   1.481       .  S
C778        C779   1.409       .  A
C779        C784   1.508       .  S
C779        C780   1.401       .  A
C780        C781   1.406       .  A
C780        H785   1.084       .  S
C781        C782   1.421       .  A
C782        C786   1.508       .  S
C783        C788   1.411       .  A
C783        C792   1.400       .  A
C784        H800   1.110       .  S
C784        H801   1.109       .  S
C784        H802   1.111       .  S
C786        H797   1.110       .  S
C786        H798   1.111       .  S
C786        H799   1.104       .  S
C788        C793   1.505       .  S
C788        C789   1.408       .  A
C789        C790   1.405       .  A
C789        H794   1.084       .  S
C790        C791   1.416       .  A
C791        C795   1.510       .  S
C791        C792   1.399       .  A
C792        H796   1.085       .  S
C793        H803   1.111       .  S
C793        H804   1.110       .  S
C793        H805   1.110       .  S
C795        H806   1.111       .  S
C795        H807   1.108       .  S
C795        H808   1.110       .  S
C809        C810   1.400   1_545  A
C809        C814   1.403       .  A
C809        H819   1.085   1_545  S
C810        C815   1.478       .  S
C810        C811   1.409   1_565  A
C811        C816   1.507       .  S
C811        C812   1.403       .  A
C812        C813   1.404       .  A
C812        H817   1.084       .  S
C813        C814   1.418       .  A
C814        C818   1.509       .  S
C815        C820   1.410       .  A
C815        C824   1.398       .  A
C816        H832   1.110   1_545  S
C816        H833   1.110   1_545  S
C816        H834   1.111       .  S
C818        H829   1.111       .  S
C818        H830   1.110       .  S
C818        H831   1.105       .  S
C820        C825   1.507       .  S
C820        C821   1.403       .  A
C821        C822   1.404       .  A
C821        H826   1.084       .  S
C822        C823   1.419       .  A
C823        C827   1.509       .  S
C823        C824   1.402       .  A
C824        H828   1.085       .  S
C825        H835   1.111       .  S
C825        H836   1.110       .  S
C825        H837   1.110       .  S
C827        H838   1.110       .  S
C827        H839   1.105       .  S
C827        H840   1.111       .  S
C841        C842   1.400       .  A
C841        C846   1.406       .  A
C841        H851   1.084       .  S
C842        C847   1.483       .  S
C842        C843   1.409       .  A
C843        C848   1.507       .  S
C843        C844   1.403       .  A
C844        C845   1.407       .  A
C844        H849   1.084       .  S
C845        C846   1.421       .  A
C846        C850   1.508       .  S
C847        C852   1.410       .  A
C847        C856   1.401       .  A
C848        H864   1.110       .  S
C848        H865   1.110       .  S
C848        H866   1.111       .  S
C850        H861   1.111       .  S
C850        H862   1.110       .  S
C850        H863   1.104       .  S
C852        C857   1.507       .  S
C852        C853   1.402       .  A
C853        C854   1.404       .  A
C853        H858   1.084       .  S
C854        C855   1.420       .  A
C855        C859   1.508       .  S
C855        C856   1.407       .  A
C856        H860   1.084       .  S
C857        H867   1.111       .  S
C857        H868   1.110       .  S
C857        H869   1.110       .  S
C859        H870   1.110       .  S
C859        H871   1.105       .  S
C859        H872   1.111       .  S
C873        C874   1.401       .  A
C873        C878   1.407       .  A
C873        H883   1.085       .  S
C874        C879   1.482       .  S
C874        C875   1.409       .  A
C875        C880   1.507       .  S
C875        C876   1.403       .  A
C876        C877   1.406       .  A
C876        H881   1.084       .  S
C877        C878   1.421       .  A
C878        C882   1.508       .  S
C879        C884   1.410       .  A
C879        C888   1.400       .  A
C880        H896   1.110       .  S
C880        H897   1.110       .  S
C880        H898   1.111       .  S
C882        H893   1.110       .  S
C882        H894   1.111       .  S
C882        H895   1.105       .  S
C884        C889   1.505       .  S
C884        C885   1.407       .  A
C885        C886   1.406       .  A
C885        H890   1.084       .  S
C886        C887   1.417       .  A
C887        C891   1.509       .  S
C887        C888   1.402       .  A
C888        H892   1.084       .  S
C889        H899   1.111       .  S
C889        H900   1.110       .  S
C889        H901   1.110       .  S
C891        H902   1.111       .  S
C891        H903   1.109       .  S
C891        H904   1.111       .  S
C905        C906   1.401       .  A
C905        C910   1.406       .  A
C905        H915   1.084       .  S
C906        C911   1.488       .  S
C906        C907   1.411       .  A
C907        C912   1.506   1_556  S
C907        C908   1.407       .  A
C908        C909   1.405       .  A
C908        H913   1.084   1_556  S
C909        C910   1.420       .  A
C910        C914   1.509       .  S
C911        C916   1.409   1_556  A
C911        C920   1.400       .  A
C912        H928   1.110       .  S
C912        H929   1.110       .  S
C912        H930   1.111       .  S
C914        H925   1.110       .  S
C914        H926   1.111       .  S
C914        H927   1.106       .  S
C916        C921   1.507       .  S
C916        C917   1.406       .  A
C917        C918   1.410   1_554  A
C917        H922   1.084       .  S
C918        C919   1.423       .  A
C919        C923   1.507       .  S
C919        C920   1.409       .  A
C920        H924   1.084       .  S
C921        H931   1.111       .  S
C921        H932   1.110   1_554  S
C921        H933   1.110       .  S
C923        H934   1.111       .  S
C923        H935   1.110       .  S
C923        H936   1.110       .  S
C937        C938   1.400       .  A
C937        C942   1.402       .  A
C937        H947   1.085       .  S
C938        C943   1.483       .  S
C938        C939   1.410       .  A
C939        C944   1.505       .  S
C939        C940   1.408       .  A
C940        C941   1.406       .  A
C940        H945   1.084       .  S
C941        C942   1.419       .  A
C942        C946   1.510       .  S
C943        C948   1.410       .  A
C943        C952   1.402       .  A
C944        H960   1.110       .  S
C944        H961   1.110       .  S
C944        H962   1.111       .  S
C946        H957   1.110       .  S
C946        H958   1.111       .  S
C946        H959   1.106       .  S
C948        C953   1.506       .  S
C948        C949   1.403       .  A
C949        C950   1.404       .  A
C949        H954   1.084       .  S
C950        C951   1.418       .  A
C951        C955   1.508       .  S
C951        C952   1.406       .  A
C952        H956   1.084       .  S
C953        H963   1.111       .  S
C953        H964   1.110       .  S
C953        H965   1.110       .  S
C955        H966   1.111       .  S
C955        H967   1.106       .  S
C955        H968   1.110       .  S
C969        C970   1.399       .  A
C969        C974   1.401       .  A
C969        H979   1.085       .  S
C970        C975   1.478       .  S
C970        C971   1.410       .  A
C971        C976   1.506       .  S
C971        C972   1.404       .  A
C972        C973   1.405       .  A
C972        H977   1.084       .  S
C973        C974   1.417       .  A
C974        C978   1.509       .  S
C975        C980   1.410       .  A
C975        C984   1.398       .  A
C976        H992   1.110       .  S
C976        H993   1.110       .  S
C976        H994   1.111       .  S
C978        H989   1.111       .  S
C978        H990   1.110       .  S
C978        H991   1.107       .  S
C980        C985   1.505       .  S
C980        C981   1.406       .  A
C981        C982   1.404       .  A
C981        H986   1.084       .  S
C982        C983   1.418       .  A
C983        C987   1.509       .  S
C983        C984   1.400       .  A
C984        H988   1.085       .  S
C985        H995   1.111       .  S
C985        H996   1.110       .  S
C985        H997   1.110       .  S
C987        H998   1.109       .  S
C987        H999   1.111       .  S
C987       H1000   1.111       .  S
C1001      C1002   1.400       .  A
C1001      C1006   1.405       .  A
C1001      H1011   1.085       .  S
C1002      C1007   1.485       .  S
C1002      C1003   1.410       .  A
C1003      C1008   1.506   1_556  S
C1003      C1004   1.405       .  A
C1004      C1005   1.406       .  A
C1004      H1009   1.084   1_556  S
C1005      C1006   1.420       .  A
C1006      C1010   1.509       .  S
C1007      C1012   1.410   1_556  A
C1007      C1016   1.401       .  A
C1008      H1024   1.110       .  S
C1008      H1025   1.110       .  S
C1008      H1026   1.111       .  S
C1010      H1021   1.110       .  S
C1010      H1022   1.111       .  S
C1010      H1023   1.105       .  S
C1012      C1017   1.506       .  S
C1012      C1013   1.405       .  A
C1013      C1014   1.405   1_554  A
C1013      H1018   1.084       .  S
C1014      C1015   1.419       .  A
C1015      C1019   1.509       .  S
C1015      C1016   1.405       .  A
C1016      H1020   1.085       .  S
C1017      H1027   1.111       .  S
C1017      H1028   1.110       .  S
C1017      H1029   1.110       .  S
C1019      H1030   1.111       .  S
C1019      H1031   1.106       .  S
C1019      H1032   1.110       .  S
C1033      C1034   1.400       .  A
C1033      C1038   1.402       .  A
C1033      H1043   1.085       .  S
C1034      C1039   1.480       .  S
C1034      C1035   1.410       .  A
C1035      C1040   1.506       .  S
C1035      C1036   1.405       .  A
C1036      C1037   1.405       .  A
C1036      H1041   1.084       .  S
C1037      C1038   1.417       .  A
C1038      C1042   1.508       .  S
C1039      C1044   1.409       .  A
C1039      C1048   1.401       .  A
C1040      H1056   1.110       .  S
C1040      H1057   1.110       .  S
C1040      H1058   1.111       .  S
C1042      H1053   1.110       .  S
C1042      H1054   1.111       .  S
C1042      H1055   1.107       .  S
C1044      C1049   1.508       .  S
C1044      C1045   1.399       .  A
C1045      C1046   1.406       .  A
C1045      H1050   1.084       .  S
C1046      C1047   1.420       .  A
C1047      C1051   1.507       .  S
C1047      C1048   1.408       .  A
C1048      H1052   1.084       .  S
C1049      H1059   1.111       .  S
C1049      H1060   1.110       .  S
C1049      H1061   1.110       .  S
C1051      H1062   1.111       .  S
C1051      H1063   1.110       .  S
C1051      H1064   1.110       .  S
C1065      C1066   1.401       .  A
C1065      C1070   1.409       .  A
C1065      H1075   1.084       .  S
C1066      C1071   1.484       .  S
C1066      C1067   1.409       .  A
C1067      C1072   1.508       .  S
C1067      C1068   1.401       .  A
C1068      C1069   1.407       .  A
C1068      H1073   1.084       .  S
C1069      C1070   1.422       .  A
C1070      C1074   1.508       .  S
C1071      C1076   1.411       .  A
C1071      C1080   1.401       .  A
C1072      H1088   1.110       .  S
C1072      H1089   1.110       .  S
C1072      H1090   1.111       .  S
C1074      H1085   1.110       .  S
C1074      H1086   1.111       .  S
C1074      H1087   1.103       .  S
C1076      C1081   1.506   1_556  S
C1076      C1077   1.406       .  A
C1077      C1078   1.405       .  A
C1077      H1082   1.084   1_556  S
C1078      C1079   1.416       .  A
C1079      C1083   1.508       .  S
C1079      C1080   1.403       .  A
C1080      H1084   1.085       .  S
C1081      H1091   1.111       .  S
C1081      H1092   1.110       .  S
C1081      H1093   1.110       .  S
C1083      H1094   1.111       .  S
C1083      H1095   1.108       .  S
C1083      H1096   1.110       .  S
C1097      C1098   1.400       .  A
C1097      C1102   1.403       .  A
C1097      H1107   1.085       .  S
C1098      C1103   1.484       .  S
C1098      C1099   1.410       .  A
C1099      C1104   1.506       .  S
C1099      C1100   1.407       .  A
C1100      C1101   1.407       .  A
C1100      H1105   1.084       .  S
C1101      C1102   1.419       .  A
C1102      C1106   1.509       .  S
C1103      C1108   1.410       .  A
C1103      C1112   1.400       .  A
C1104      H1120   1.110       .  S
C1104      H1121   1.110       .  S
C1104      H1122   1.111       .  S
C1106      H1117   1.111       .  S
C1106      H1118   1.110       .  S
C1106      H1119   1.107       .  S
C1108      C1113   1.506       .  S
C1108      C1109   1.406       .  A
C1109      C1110   1.407       .  A
C1109      H1114   1.084       .  S
C1110      C1111   1.420       .  A
C1111      C1115   1.508       .  S
C1111      C1112   1.405       .  A
C1112      H1116   1.084       .  S
C1113      H1123   1.111       .  S
C1113      H1124   1.110       .  S
C1113      H1125   1.110       .  S
C1115      H1126   1.109       .  S
C1115      H1127   1.110       .  S
C1115      H1128   1.111       .  S
C1129      C1130   1.400   1_554  A
C1129      C1134   1.406   1_655  A
C1129      H1139   1.084       .  S
C1130      C1135   1.484       .  S
C1130      C1131   1.409   1_655  A
C1131      C1136   1.506       .  S
C1131      C1132   1.406       .  A
C1132      C1133   1.409   1_556  A
C1132      H1137   1.084       .  S
C1133      C1134   1.422       .  A
C1134      C1138   1.508       .  S
C1135      C1140   1.410       .  A
C1135      C1144   1.402   1_556  A
C1136      H1152   1.110   1_455  S
C1136      H1153   1.109   1_455  S
C1136      H1154   1.111       .  S
C1138      H1149   1.110       .  S
C1138      H1150   1.111       .  S
C1138      H1151   1.110       .  S
C1140      C1145   1.507       .  S
C1140      C1141   1.403       .  A
C1141      C1142   1.406       .  A
C1141      H1146   1.084       .  S
C1142      C1143   1.420   1_556  A
C1143      C1147   1.508       .  S
C1143      C1144   1.408       .  A
C1144      H1148   1.084       .  S
C1145      H1155   1.111       .  S
C1145      H1156   1.110       .  S
C1145      H1157   1.109       .  S
C1147      H1158   1.111       .  S
C1147      H1159   1.105       .  S
C1147      H1160   1.110       .  S
C1161      C1162   1.402       .  A
C1161      C1166   1.406       .  A
C1161      H1171   1.084       .  S
C1162      C1167   1.483       .  S
C1162      C1163   1.411       .  A
C1163      C1168   1.507       .  S
C1163      C1164   1.403       .  A
C1164      C1165   1.403       .  A
C1164      H1169   1.084       .  S
C1165      C1166   1.417       .  A
C1166      C1170   1.508       .  S
C1167      C1172   1.409       .  A
C1167      C1176   1.401       .  A
C1168      H1184   1.110       .  S
C1168      H1185   1.109       .  S
C1168      H1186   1.111       .  S
C1170      H1181   1.111       .  S
C1170      H1182   1.110       .  S
C1170      H1183   1.106       .  S
C1172      C1177   1.508       .  S
C1172      C1173   1.402       .  A
C1173      C1174   1.408       .  A
C1173      H1178   1.084       .  S
C1174      C1175   1.421       .  A
C1175      C1179   1.507       .  S
C1175      C1176   1.409       .  A
C1176      H1180   1.084       .  S
C1177      H1187   1.111       .  S
C1177      H1188   1.110       .  S
C1177      H1189   1.109       .  S
C1179      H1190   1.110       .  S
C1179      H1191   1.110       .  S
C1179      H1192   1.111       .  S
C1193      C1194   1.401   1_556  A
C1193      C1198   1.406       .  A
C1193      H1203   1.085       .  S
C1194      C1199   1.481       .  S
C1194      C1195   1.410       .  A
C1195      C1200   1.508       .  S
C1195      C1196   1.402       .  A
C1196      C1197   1.406       .  A
C1196      H1201   1.084       .  S
C1197      C1198   1.420   1_554  A
C1198      C1202   1.508       .  S
C1199      C1204   1.410       .  A
C1199      C1208   1.397   1_554  A
C1200      H1216   1.110       .  S
C1200      H1217   1.109       .  S
C1200      H1218   1.111       .  S
C1202      H1213   1.110       .  S
C1202      H1214   1.111       .  S
C1202      H1215   1.103       .  S
C1204      C1209   1.505       .  S
C1204      C1205   1.410       .  A
C1205      C1206   1.409       .  A
C1205      H1210   1.084       .  S
C1206      C1207   1.418   1_554  A
C1207      C1211   1.509       .  S
C1207      C1208   1.398       .  A
C1208      H1212   1.085       .  S
C1209      H1219   1.111       .  S
C1209      H1220   1.110   1_554  S
C1209      H1221   1.109       .  S
C1211      H1222   1.111       .  S
C1211      H1223   1.109       .  S
C1211      H1224   1.109   1_556  S
C1225      C1226   1.400       .  A
C1225      C1230   1.402       .  A
C1225      H1235   1.085       .  S
C1226      C1231   1.479       .  S
C1226      C1227   1.410       .  A
C1227      C1232   1.506       .  S
C1227      C1228   1.404       .  A
C1228      C1229   1.404       .  A
C1228      H1233   1.084       .  S
C1229      C1230   1.417       .  A
C1230      C1234   1.509       .  S
C1231      C1236   1.409       .  A
C1231      C1240   1.397       .  A
C1232      H1248   1.110       .  S
C1232      H1249   1.110       .  S
C1232      H1250   1.111       .  S
C1234      H1245   1.111       .  S
C1234      H1246   1.110       .  S
C1234      H1247   1.107       .  S
C1236      C1241   1.506       .  S
C1236      C1237   1.407       .  A
C1237      C1238   1.408       .  A
C1237      H1242   1.084       .  S
C1238      C1239   1.421       .  A
C1239      C1243   1.509       .  S
C1239      C1240   1.401       .  A
C1240      H1244   1.085       .  S
C1241      H1251   1.111       .  S
C1241      H1252   1.110       .  S
C1241      H1253   1.110       .  S
C1243      H1254   1.111       .  S
C1243      H1255   1.109       .  S
C1243      H1256   1.110       .  S
C1257      C1258   1.397   1_554  A
C1257      C1262   1.400       .  A
C1257      H1267   1.085       .  S
C1258      C1263   1.476       .  S
C1258      C1259   1.409       .  A
C1259      C1264   1.506       .  S
C1259      C1260   1.405       .  A
C1260      C1261   1.406   1_556  A
C1260      H1265   1.084       .  S
C1261      C1262   1.421       .  A
C1262      C1266   1.509       .  S
C1263      C1268   1.409   1_565  A
C1263      C1272   1.400   1_566  A
C1264      H1280   1.110       .  S
C1264      H1281   1.110       .  S
C1264      H1282   1.111       .  S
C1266      H1277   1.111       .  S
C1266      H1278   1.111       .  S
C1266      H1279   1.109       .  S
C1268      C1273   1.507   1_545  S
C1268      C1269   1.399       .  A
C1269      C1270   1.405       .  A
C1269      H1274   1.084       .  S
C1270      C1271   1.418   1_556  A
C1271      C1275   1.507       .  S
C1271      C1272   1.405       .  A
C1272      H1276   1.084       .  S
C1273      H1283   1.111       .  S
C1273      H1284   1.110       .  S
C1273      H1285   1.110       .  S
C1275      H1286   1.111       .  S
C1275      H1287   1.110       .  S
C1275      H1288   1.110       .  S
C1289      C1290   1.400       .  A
C1289      C1294   1.401       .  A
C1289      H1299   1.085       .  S
C1290      C1295   1.483       .  S
C1290      C1291   1.411       .  A
C1291      C1296   1.506       .  S
C1291      C1292   1.407       .  A
C1292      C1293   1.407       .  A
C1292      H1297   1.084       .  S
C1293      C1294   1.418       .  A
C1294      C1298   1.508       .  S
C1295      C1300   1.411       .  A
C1295      C1304   1.401       .  A
C1296      H1312   1.110       .  S
C1296      H1313   1.110       .  S
C1296      H1314   1.111       .  S
C1298      H1309   1.111       .  S
C1298      H1310   1.110       .  S
C1298      H1311   1.106       .  S
C1300      C1305   1.506       .  S
C1300      C1301   1.405       .  A
C1301      C1302   1.405       .  A
C1301      H1306   1.084       .  S
C1302      C1303   1.418       .  A
C1303      C1307   1.509       .  S
C1303      C1304   1.403       .  A
C1304      H1308   1.084       .  S
C1305      H1315   1.111       .  S
C1305      H1316   1.110       .  S
C1305      H1317   1.110       .  S
C1307      H1318   1.110       .  S
C1307      H1319   1.107       .  S
C1307      H1320   1.111       .  S
C1321      C1322   1.399   1_556  A
C1321      C1326   1.399       .  A
C1321      H1331   1.085       .  S
C1322      C1327   1.480       .  S
C1322      C1323   1.411       .  A
C1323      C1328   1.506       .  S
C1323      C1324   1.408       .  A
C1324      C1325   1.406       .  A
C1324      H1329   1.084       .  S
C1325      C1326   1.417   1_554  A
C1326      C1330   1.509       .  S
C1327      C1332   1.410       .  A
C1327      C1336   1.401   1_554  A
C1328      H1344   1.110       .  S
C1328      H1345   1.108       .  S
C1328      H1346   1.111       .  S
C1330      H1341   1.110       .  S
C1330      H1342   1.111       .  S
C1330      H1343   1.108       .  S
C1332      C1337   1.508       .  S
C1332      C1333   1.400       .  A
C1333      C1334   1.405       .  A
C1333      H1338   1.084       .  S
C1334      C1335   1.421       .  A
C1335      C1339   1.509   1_554  S
C1335      C1336   1.406   1_554  A
C1336      H1340   1.085       .  S
C1337      H1347   1.111       .  S
C1337      H1348   1.110       .  S
C1337      H1349   1.108       .  S
C1339      H1350   1.111       .  S
C1339      H1351   1.103       .  S
C1339      H1352   1.110       .  S
C1353      C1354   1.398       .  A
C1353      C1358   1.402       .  A
C1353      H1363   1.084       .  S
C1354      C1359   1.479       .  S
C1354      C1355   1.408       .  A
C1355      C1360   1.505       .  S
C1355      C1356   1.405       .  A
C1356      C1357   1.408       .  A
C1356      H1361   1.084       .  S
C1357      C1358   1.421       .  A
C1358      C1362   1.509       .  S
C1359      C1364   1.410       .  A
C1359      C1368   1.400       .  A
C1360      H1376   1.110       .  S
C1360      H1377   1.110       .  S
C1360      H1378   1.111       .  S
C1362      H1373   1.110       .  S
C1362      H1374   1.111       .  S
C1362      H1375   1.110       .  S
C1364      C1369   1.506       .  S
C1364      C1365   1.405       .  A
C1365      C1366   1.404       .  A
C1365      H1370   1.084       .  S
C1366      C1367   1.417       .  A
C1367      C1371   1.509       .  S
C1367      C1368   1.402       .  A
C1368      H1372   1.085       .  S
C1369      H1379   1.111       .  S
C1369      H1380   1.110       .  S
C1369      H1381   1.110       .  S
C1371      H1382   1.110       .  S
C1371      H1383   1.107       .  S
C1371      H1384   1.111       .  S
C1385      C1386   1.399       .  A
C1385      C1390   1.402       .  A
C1385      H1395   1.085       .  S
C1386      C1391   1.476   1_556  S
C1386      C1387   1.409   1_556  A
C1387      C1392   1.507       .  S
C1387      C1388   1.401   1_554  A
C1388      C1389   1.404       .  A
C1388      H1393   1.084   1_556  S
C1389      C1390   1.420       .  A
C1390      C1394   1.509       .  S
C1391      C1396   1.409       .  A
C1391      C1400   1.400   1_654  A
C1392      H1408   1.110       .  S
C1392      H1409   1.110       .  S
C1392      H1410   1.111       .  S
C1394      H1405   1.110       .  S
C1394      H1406   1.111       .  S
C1394      H1407   1.104       .  S
C1396      C1401   1.506       .  S
C1396      C1397   1.403   1_655  A
C1397      C1398   1.404       .  A
C1397      H1402   1.084       .  S
C1398      C1399   1.416   1_554  A
C1399      C1403   1.508       .  S
C1399      C1400   1.400       .  A
C1400      H1404   1.085   1_455  S
C1401      H1411   1.111       .  S
C1401      H1412   1.110       .  S
C1401      H1413   1.110       .  S
C1403      H1414   1.111       .  S
C1403      H1415   1.107       .  S
C1403      H1416   1.110       .  S
C1417      C1418   1.399       .  A
C1417      C1422   1.405       .  A
C1417      H1427   1.084   1_556  S
C1418      C1423   1.474       .  S
C1418      C1419   1.408       .  A
C1419      C1424   1.508       .  S
C1419      C1420   1.398       .  A
C1420      C1421   1.406       .  A
C1420      H1425   1.084       .  S
C1421      C1422   1.419       .  A
C1422      C1426   1.507   1_556  S
C1423      C1428   1.409       .  A
C1423      C1432   1.399       .  A
C1424      H1440   1.110       .  S
C1424      H1441   1.110       .  S
C1424      H1442   1.111       .  S
C1426      H1437   1.110       .  S
C1426      H1438   1.111       .  S
C1426      H1439   1.110       .  S
C1428      C1433   1.505       .  S
C1428      C1429   1.404       .  A
C1429      C1430   1.405       .  A
C1429      H1434   1.084       .  S
C1430      C1431   1.416       .  A
C1431      C1435   1.509   1_556  S
C1431      C1432   1.399       .  A
C1432      H1436   1.085       .  S
C1433      H1443   1.111       .  S
C1433      H1444   1.110       .  S
C1433      H1445   1.110       .  S
C1435      H1446   1.111       .  S
C1435      H1447   1.111       .  S
C1435      H1448   1.109   1_554  S
C1449      C1450   1.399       .  A
C1449      C1454   1.404       .  A
C1449      H1459   1.084       .  S
C1450      C1455   1.483       .  S
C1450      C1451   1.408       .  A
C1451      C1456   1.506       .  S
C1451      C1452   1.407       .  A
C1452      C1453   1.409       .  A
C1452      H1457   1.084       .  S
C1453      C1454   1.422       .  A
C1454      C1458   1.508       .  S
C1455      C1460   1.410       .  A
C1455      C1464   1.402       .  A
C1456      H1472   1.110       .  S
C1456      H1473   1.110       .  S
C1456      H1474   1.111       .  S
C1458      H1469   1.110       .  S
C1458      H1470   1.111       .  S
C1458      H1471   1.111       .  S
C1460      C1465   1.506       .  S
C1460      C1461   1.403       .  A
C1461      C1462   1.403       .  A
C1461      H1466   1.084       .  S
C1462      C1463   1.415       .  A
C1463      C1467   1.507       .  S
C1463      C1464   1.405       .  A
C1464      H1468   1.085       .  S
C1465      H1475   1.111       .  S
C1465      H1476   1.110       .  S
C1465      H1477   1.110       .  S
C1467      H1478   1.111       .  S
C1467      H1479   1.107       .  S
C1467      H1480   1.110       .  S
C1481      C1482   1.401   1_556  A
C1481      C1486   1.407       .  A
C1481      H1491   1.085       .  S
C1482      C1487   1.481       .  S
C1482      C1483   1.409       .  A
C1483      C1488   1.507       .  S
C1483      C1484   1.401       .  A
C1484      C1485   1.406       .  A
C1484      H1489   1.084       .  S
C1485      C1486   1.421   1_554  A
C1486      C1490   1.508       .  S
C1487      C1492   1.409       .  A
C1487      C1496   1.400   1_554  A
C1488      H1504   1.110       .  S
C1488      H1505   1.110       .  S
C1488      H1506   1.111       .  S
C1490      H1501   1.110       .  S
C1490      H1502   1.111       .  S
C1490      H1503   1.104       .  S
C1492      C1497   1.505       .  S
C1492      C1493   1.406       .  A
C1493      C1494   1.406       .  A
C1493      H1498   1.084       .  S
C1494      C1495   1.418   1_554  A
C1495      C1499   1.509       .  S
C1495      C1496   1.401       .  A
C1496      H1500   1.085       .  S
C1497      H1507   1.111       .  S
C1497      H1508   1.110       .  S
C1497      H1509   1.110       .  S
C1499      H1510   1.111       .  S
C1499      H1511   1.107       .  S
C1499      H1512   1.110       .  S
C1513      C1514   1.401       .  A
C1513      C1518   1.406       .  A
C1513      H1523   1.084       .  S
C1514      C1519   1.480       .  S
C1514      C1515   1.409       .  A
C1515      C1520   1.507       .  S
C1515      C1516   1.400       .  A
C1516      C1517   1.404       .  A
C1516      H1521   1.084       .  S
C1517      C1518   1.420       .  A
C1518      C1522   1.508       .  S
C1519      C1524   1.409       .  A
C1519      C1528   1.400       .  A
C1520      H1536   1.110       .  S
C1520      H1537   1.110       .  S
C1520      H1538   1.111       .  S
C1522      H1533   1.110       .  S
C1522      H1534   1.111       .  S
C1522      H1535   1.105       .  S
C1524      C1529   1.506       .  S
C1524      C1525   1.404       .  A
C1525      C1526   1.406       .  A
C1525      H1530   1.084       .  S
C1526      C1527   1.418       .  A
C1527      C1531   1.508       .  S
C1527      C1528   1.402       .  A
C1528      H1532   1.085       .  S
C1529      H1539   1.111       .  S
C1529      H1540   1.110       .  S
C1529      H1541   1.110       .  S
C1531      H1542   1.111       .  S
C1531      H1543   1.106       .  S
C1531      H1544   1.110       .  S
C1545      C1546   1.401       .  A
C1545      C1550   1.406       .  A
C1545      H1555   1.085   1_556  S
C1546      C1551   1.480       .  S
C1546      C1547   1.409       .  A
C1547      C1552   1.507       .  S
C1547      C1548   1.401       .  A
C1548      C1549   1.404       .  A
C1548      H1553   1.085       .  S
C1549      C1550   1.419       .  A
C1550      C1554   1.508   1_556  S
C1551      C1556   1.410       .  A
C1551      C1560   1.398       .  A
C1552      H1568   1.110       .  S
C1552      H1569   1.110       .  S
C1552      H1570   1.111       .  S
C1554      H1565   1.110       .  S
C1554      H1566   1.111       .  S
C1554      H1567   1.105       .  S
C1556      C1561   1.505       .  S
C1556      C1557   1.408       .  A
C1557      C1558   1.406       .  A
C1557      H1562   1.084       .  S
C1558      C1559   1.419       .  A
C1559      C1563   1.510       .  S
C1559      C1560   1.400       .  A
C1560      H1564   1.085       .  S
C1561      H1571   1.111       .  S
C1561      H1572   1.110       .  S
C1561      H1573   1.110       .  S
C1563      H1574   1.111   1_556  S
C1563      H1575   1.107       .  S
C1563      H1576   1.110       .  S
C1577      C1578   1.400       .  A
C1577      C1582   1.407       .  A
C1577      H1587   1.084       .  S
C1578      C1583   1.480       .  S
C1578      C1579   1.409   1_556  A
C1579      C1584   1.507       .  S
C1579      C1580   1.402       .  A
C1580      C1581   1.407       .  A
C1580      H1585   1.085       .  S
C1581      C1582   1.421   1_554  A
C1582      C1586   1.507       .  S
C1583      C1588   1.409   1_565  A
C1583      C1592   1.402   1_566  A
C1584      H1600   1.110       .  S
C1584      H1601   1.110       .  S
C1584      H1602   1.111       .  S
C1586      H1597   1.110       .  S
C1586      H1598   1.111       .  S
C1586      H1599   1.110       .  S
C1588      C1593   1.507   1_545  S
C1588      C1589   1.401       .  A
C1589      C1590   1.405       .  A
C1589      H1594   1.084       .  S
C1590      C1591   1.418       .  A
C1591      C1595   1.508   1_556  S
C1591      C1592   1.405   1_556  A
C1592      H1596   1.084   1_545  S
C1593      H1603   1.111   1_565  S
C1593      H1604   1.110       .  S
C1593      H1605   1.110       .  S
C1595      H1606   1.110       .  S
C1595      H1607   1.105       .  S
C1595      H1608   1.111       .  S
C1609      C1610   1.402       .  A
C1609      C1614   1.409       .  A
C1609      H1619   1.084       .  S
C1610      C1615   1.485       .  S
C1610      C1611   1.408       .  A
C1611      C1616   1.507       .  S
C1611      C1612   1.403       .  A
C1612      C1613   1.409       .  A
C1612      H1617   1.084       .  S
C1613      C1614   1.420       .  A
C1614      C1618   1.506   1_554  S
C1615      C1620   1.411       .  A
C1615      C1624   1.402       .  A
C1616      H1632   1.110       .  S
C1616      H1633   1.110       .  S
C1616      H1634   1.111       .  S
C1618      H1629   1.110       .  S
C1618      H1630   1.111       .  S
C1618      H1631   1.110       .  S
C1620      C1625   1.506       .  S
C1620      C1621   1.404       .  A
C1621      C1622   1.403       .  A
C1621      H1626   1.083       .  S
C1622      C1623   1.415       .  A
C1623      C1627   1.507       .  S
C1623      C1624   1.405       .  A
C1624      H1628   1.084       .  S
C1625      H1635   1.111       .  S
C1625      H1636   1.110       .  S
C1625      H1637   1.110       .  S
C1627      H1638   1.110       .  S
C1627      H1639   1.107       .  S
C1627      H1640   1.110       .  S
C1641      C1642   1.402       .  A
C1641      C1646   1.405       .  A
C1641      H1651   1.085       .  S
C1642      C1647   1.479       .  S
C1642      C1643   1.409       .  A
C1643      C1648   1.507       .  S
C1643      C1644   1.401       .  A
C1644      C1645   1.404       .  A
C1644      H1649   1.085       .  S
C1645      C1646   1.415       .  A
C1646      C1650   1.507       .  S
C1647      C1652   1.410       .  A
C1647      C1656   1.400       .  A
C1648      H1664   1.110       .  S
C1648      H1665   1.110       .  S
C1648      H1666   1.111       .  S
C1650      H1661   1.111       .  S
C1650      H1662   1.110       .  S
C1650      H1663   1.107       .  S
C1652      C1657   1.506       .  S
C1652      C1653   1.402       .  A
C1653      C1654   1.403       .  A
C1653      H1658   1.082       .  S
C1654      C1655   1.419       .  A
C1655      C1659   1.508       .  S
C1655      C1656   1.403       .  A
C1656      H1660   1.085       .  S
C1657      H1667   1.111       .  S
C1657      H1668   1.110       .  S
C1657      H1669   1.110       .  S
C1659      H1670   1.110       .  S
C1659      H1671   1.107       .  S
C1659      H1672   1.111       .  S
C1673      C1674   1.394       .  A
C1673      C1678   1.401       .  A
C1673      H1683   1.085       .  S
C1674      C1679   1.475       .  S
C1674      C1675   1.404       .  A
C1675      C1680   1.509       .  S
C1675      C1676   1.401       .  A
C1676      C1677   1.416       .  A
C1676      H1681   1.073       .  S
C1677      C1678   1.431       .  A
C1678      C1682   1.512       .  S
C1679      C1684   1.403       .  A
C1679      C1688   1.395       .  A
C1680      H1696   1.110       .  S
C1680      H1697   1.110       .  S
C1680      H1698   1.111       .  S
C1682      H1693   1.111       .  S
C1682      H1694   1.110       .  S
C1682      H1695   1.101       .  S
C1684      C1689   1.509       .  S
C1684      C1685   1.398       .  A
C1685      C1686   1.414       .  A
C1685      H1690   1.072       .  S
C1686      C1687   1.433       .  A
C1687      C1691   1.513       .  S
C1687      C1688   1.404       .  A
C1688      H1692   1.085       .  S
C1689      H1699   1.110       .  S
C1689      H1700   1.110       .  S
C1689      H1701   1.110       .  S
C1691      H1702   1.110       .  S
C1691      H1703   1.102       .  S
C1691      H1704   1.111       .  S
C1705      C1706   1.401       .  A
C1705      C1710   1.402       .  A
C1705      H1715   1.084       .  S
C1706      C1711   1.479       .  S
C1706      C1707   1.412       .  A
C1707      C1712   1.506       .  S
C1707      C1708   1.404       .  A
C1708      C1709   1.401       .  A
C1708      H1713   1.084       .  S
C1709      C1710   1.410       .  A
C1710      C1714   1.505       .  S
C1711      C1716   1.408       .  A
C1711      C1720   1.402       .  A
C1712      H1728   1.110       .  S
C1712      H1729   1.109       .  S
C1712      H1730   1.111       .  S
C1714      H1725   1.109       .  S
C1714      H1726   1.111       .  S
C1714      H1727   1.110       .  S
C1716      C1721   1.507       .  S
C1716      C1717   1.401       .  A
C1717      C1718   1.406       .  A
C1717      H1722   1.084       .  S
C1718      C1719   1.418       .  A
C1719      C1723   1.508       .  S
C1719      C1720   1.405       .  A
C1720      H1724   1.085       .  S
C1721      H1731   1.111       .  S
C1721      H1732   1.110       .  S
C1721      H1733   1.109       .  S
C1723      H1734   1.111       .  S
C1723      H1735   1.106       .  S
C1723      H1736   1.110       .  S
C1737      C1738   1.399       .  A
C1737      C1742   1.403       .  A
C1737      H1747   1.085       .  S
C1738      C1743   1.478       .  S
C1738      C1739   1.408       .  A
C1739      C1744   1.506       .  S
C1739      C1740   1.402       .  A
C1740      C1741   1.407       .  A
C1740      H1745   1.084       .  S
C1741      C1742   1.419       .  A
C1742      C1746   1.505       .  S
C1743      C1748   1.407       .  A
C1743      C1752   1.400       .  A
C1744      H1760   1.110       .  S
C1744      H1761   1.110       .  S
C1744      H1762   1.111       .  S
C1746      H1757   1.110       .  S
C1746      H1758   1.111       .  S
C1746      H1759   1.098       .  S
C1748      C1753   1.507       .  S
C1748      C1749   1.401       .  A
C1749      C1750   1.409       .  A
C1749      H1754   1.084       .  S
C1750      C1751   1.421       .  A
C1751      C1755   1.507   1_554  S
C1751      C1752   1.405       .  A
C1752      H1756   1.084       .  S
C1753      H1763   1.111       .  S
C1753      H1764   1.110       .  S
C1753      H1765   1.110       .  S
C1755      H1766   1.110       .  S
C1755      H1767   1.110       .  S
C1755      H1768   1.111       .  S
C1769      C1770   1.400       .  A
C1769      C1774   1.402       .  A
C1769      H1779   1.084       .  S
C1770      C1775   1.476       .  S
C1770      C1771   1.411       .  A
C1771      C1776   1.508       .  S
C1771      C1772   1.402       .  A
C1772      C1773   1.404       .  A
C1772      H1777   1.084       .  S
C1773      C1774   1.414       .  A
C1774      C1778   1.507       .  S
C1775      C1780   1.410       .  A
C1775      C1784   1.398       .  A
C1776      H1792   1.110       .  S
C1776      H1793   1.108       .  S
C1776      H1794   1.111       .  S
C1778      H1789   1.111       .  S
C1778      H1790   1.110       .  S
C1778      H1791   1.107       .  S
C1780      C1785   1.507       .  S
C1780      C1781   1.403       .  A
C1781      C1782   1.403       .  A
C1781      H1786   1.084       .  S
C1782      C1783   1.420       .  A
C1783      C1787   1.511       .  S
C1783      C1784   1.401       .  A
C1784      H1788   1.084       .  S
C1785      H1795   1.111       .  S
C1785      H1796   1.110       .  S
C1785      H1797   1.108       .  S
C1787      H1798   1.111       .  S
C1787      H1799   1.110       .  S
C1787      H1800   1.106       .  S
C1801      C1802   1.401       .  A
C1801      C1806   1.402       .  A
C1801      H1811   1.085       .  S
C1802      C1807   1.482       .  S
C1802      C1803   1.410       .  A
C1803      C1808   1.506       .  S
C1803      C1804   1.404       .  A
C1804      C1805   1.407       .  A
C1804      H1809   1.084       .  S
C1805      C1806   1.416       .  A
C1806      C1810   1.505       .  S
C1807      C1812   1.410       .  A
C1807      C1816   1.402       .  A
C1808      H1824   1.110       .  S
C1808      H1825   1.110       .  S
C1808      H1826   1.111       .  S
C1810      H1821   1.110       .  S
C1810      H1822   1.110       .  S
C1810      H1823   1.102       .  S
C1812      C1817   1.507       .  S
C1812      C1813   1.402       .  A
C1813      C1814   1.404       .  A
C1813      H1818   1.085       .  S
C1814      C1815   1.417       .  A
C1815      C1819   1.508       .  S
C1815      C1816   1.405       .  A
C1816      H1820   1.085       .  S
C1817      H1827   1.111       .  S
C1817      H1828   1.109       .  S
C1817      H1829   1.111       .  S
C1819      H1830   1.111       .  S
C1819      H1831   1.106       .  S
C1819      H1832   1.110       .  S
C1833      C1834   1.401       .  A
C1833      C1838   1.401       .  A
C1833      H1843   1.085       .  S
C1834      C1839   1.479       .  S
C1834      C1835   1.410       .  A
C1835      C1840   1.506       .  S
C1835      C1836   1.403       .  A
C1836      C1837   1.404       .  A
C1836      H1841   1.084       .  S
C1837      C1838   1.416       .  A
C1838      C1842   1.508       .  S
C1839      C1844   1.408       .  A
C1839      C1848   1.398       .  A
C1840      H1856   1.110       .  S
C1840      H1857   1.110       .  S
C1840      H1858   1.111       .  S
C1842      H1853   1.110       .  S
C1842      H1854   1.111       .  S
C1842      H1855   1.106       .  S
C1844      C1849   1.507       .  S
C1844      C1845   1.403       .  A
C1845      C1846   1.409       .  A
C1845      H1850   1.083       .  S
C1846      C1847   1.423       .  A
C1847      C1851   1.508       .  S
C1847      C1848   1.404       .  A
C1848      H1852   1.084       .  S
C1849      H1859   1.111       .  S
C1849      H1860   1.110       .  S
C1849      H1861   1.111       .  S
C1851      H1862   1.111       .  S
C1851      H1863   1.110       .  S
C1851      H1864   1.111       .  S
C1865      C1866   1.402       .  A
C1865      C1870   1.404       .  A
C1865      H1875   1.084       .  S
C1866      C1871   1.481       .  S
C1866      C1867   1.411       .  A
C1867      C1872   1.507       .  S
C1867      C1868   1.401       .  A
C1868      C1869   1.401       .  A
C1868      H1873   1.084       .  S
C1869      C1870   1.414       .  A
C1870      C1874   1.506       .  S
C1871      C1876   1.408       .  A
C1871      C1880   1.400       .  A
C1872      H1888   1.110       .  S
C1872      H1889   1.110       .  S
C1872      H1890   1.111       .  S
C1874      H1885   1.110       .  S
C1874      H1886   1.110       .  S
C1874      H1887   1.108       .  S
C1876      C1881   1.507       .  S
C1876      C1877   1.402       .  A
C1877      C1878   1.409       .  A
C1877      H1882   1.084       .  S
C1878      C1879   1.421       .  A
C1879      C1883   1.507       .  S
C1879      C1880   1.406       .  A
C1880      H1884   1.084       .  S
C1881      H1891   1.111       .  S
C1881      H1892   1.110       .  S
C1881      H1893   1.111       .  S
C1883      H1894   1.110       .  S
C1883      H1895   1.110       .  S
C1883      H1896   1.111       .  S
C1897      C1898   1.400       .  A
C1897      C1902   1.405       .  A
C1897      H1907   1.085       .  S
C1898      C1903   1.480       .  S
C1898      C1899   1.409       .  A
C1899      C1904   1.508       .  S
C1899      C1900   1.402       .  A
C1900      C1901   1.405       .  A
C1900      H1905   1.081       .  S
C1901      C1902   1.421       .  A
C1902      C1906   1.508       .  S
C1903      C1908   1.410       .  A
C1903      C1912   1.402       .  A
C1904      H1920   1.110       .  S
C1904      H1921   1.109       .  S
C1904      H1922   1.111       .  S
C1906      H1917   1.111       .  S
C1906      H1918   1.110       .  S
C1906      H1919   1.106       .  S
C1908      C1913   1.508       .  S
C1908      C1909   1.401       .  A
C1909      C1910   1.405       .  A
C1909      H1914   1.084       .  S
C1910      C1911   1.418       .  A
C1911      C1915   1.508       .  S
C1911      C1912   1.406       .  A
C1912      H1916   1.084       .  S
C1913      H1923   1.111       .  S
C1913      H1924   1.110       .  S
C1913      H1925   1.109       .  S
C1915      H1926   1.110       .  S
C1915      H1927   1.106       .  S
C1915      H1928   1.111       .  S
C1929      C1930   1.395       .  A
C1929      C1934   1.404       .  A
C1929      H1939   1.085       .  S
C1930      C1935   1.479       .  S
C1930      C1931   1.403       .  A
C1931      C1936   1.509       .  S
C1931      C1932   1.402       .  A
C1932      C1933   1.417       .  A
C1932      H1937   1.072       .  S
C1933      C1934   1.432       .  A
C1934      C1938   1.513       .  S
C1935      C1940   1.405       .  A
C1935      C1944   1.395       .  A
C1936      H1952   1.110       .  S
C1936      H1953   1.110       .  S
C1936      H1954   1.111       .  S
C1938      H1949   1.111       .  S
C1938      H1950   1.111       .  S
C1938      H1951   1.101       .  S
C1940      C1945   1.508       .  S
C1940      C1941   1.402       .  A
C1941      C1942   1.414       .  A
C1941      H1946   1.076       .  S
C1942      C1943   1.430       .  A
C1943      C1947   1.512       .  S
C1943      C1944   1.402       .  A
C1944      H1948   1.085       .  S
C1945      H1955   1.111       .  S
C1945      H1956   1.110       .  S
C1945      H1957   1.111       .  S
C1947      H1958   1.110       .  S
C1947      H1959   1.102       .  S
C1947      H1960   1.111       .  S
C1961      C1962   1.399       .  A
C1961      C1966   1.405       .  A
C1961      H1971   1.085       .  S
C1962      C1967   1.481       .  S
C1962      C1963   1.407       .  A
C1963      C1968   1.507       .  S
C1963      C1964   1.402       .  A
C1964      C1965   1.410       .  A
C1964      H1969   1.084       .  S
C1965      C1966   1.422       .  A
C1966      C1970   1.503       .  S
C1967      C1972   1.410       .  A
C1967      C1976   1.398       .  A
C1968      H1984   1.110       .  S
C1968      H1985   1.110       .  S
C1968      H1986   1.111       .  S
C1970      H1981   1.110       .  S
C1970      H1982   1.111       .  S
C1970      H1983   1.094       .  S
C1972      C1977   1.505       .  S
C1972      C1973   1.407       .  A
C1973      C1974   1.406       .  A
C1973      H1978   1.084       .  S
C1974      C1975   1.420       .  A
C1975      C1979   1.509       .  S
C1975      C1976   1.400       .  A
C1976      H1980   1.084       .  S
C1977      H1987   1.111       .  S
C1977      H1988   1.110       .  S
C1977      H1989   1.110       .  S
C1979      H1990   1.111       .  S
C1979      H1991   1.106       .  S
C1979      H1992   1.110       .  S
C1993      C1994   1.401       .  A
C1993      C1998   1.402       .  A
C1993      H2003   1.085       .  S
C1994      C1999   1.481       .  S
C1994      C1995   1.411       .  A
C1995      C2000   1.506       .  S
C1995      C1996   1.403       .  A
C1996      C1997   1.401       .  A
C1996      H2001   1.084       .  S
C1997      C1998   1.414       .  A
C1998      C2002   1.506       .  S
C1999      C2004   1.408       .  A
C1999      C2008   1.400       .  A
C2000      H2016   1.110       .  S
C2000      H2017   1.110       .  S
C2000      H2018   1.111       .  S
C2002      H2013   1.111       .  S
C2002      H2014   1.110       .  S
C2002      H2015   1.105       .  S
C2004      C2009   1.507       .  S
C2004      C2005   1.402       .  A
C2005      C2006   1.408       .  A
C2005      H2010   1.084       .  S
C2006      C2007   1.422       .  A
C2007      C2011   1.507   1_554  S
C2007      C2008   1.406       .  A
C2008      H2012   1.084       .  S
C2009      H2019   1.111       .  S
C2009      H2020   1.110       .  S
C2009      H2021   1.111       .  S
C2011      H2022   1.110       .  S
C2011      H2023   1.110       .  S
C2011      H2024   1.111       .  S
C2025      C2026   1.401       .  A
C2025      C2030   1.403       .  A
C2025      H2035   1.084       .  S
C2026      C2031   1.482       .  S
C2026      C2027   1.409       .  A
C2027      C2032   1.506       .  S
C2027      C2028   1.405       .  A
C2028      C2029   1.407       .  A
C2028      H2033   1.083       .  S
C2029      C2030   1.416       .  A
C2030      C2034   1.506       .  S
C2031      C2036   1.408       .  A
C2031      C2040   1.400       .  A
C2032      H2048   1.110       .  S
C2032      H2049   1.110       .  S
C2032      H2050   1.111       .  S
C2034      H2045   1.106       .  S
C2034      H2046   1.111       .  S
C2034      H2047   1.108       .  S
C2036      C2041   1.507       .  S
C2036      C2037   1.403       .  A
C2037      C2038   1.410       .  A
C2037      H2042   1.084       .  S
C2038      C2039   1.422       .  A
C2039      C2043   1.507       .  S
C2039      C2040   1.407       .  A
C2040      H2044   1.084       .  S
C2041      H2051   1.111       .  S
C2041      H2052   1.110       .  S
C2041      H2053   1.110       .  S
C2043      H2054   1.111       .  S
C2043      H2055   1.110       .  S
C2043      H2056   1.110       .  S
C2057      C2058   1.396       .  A
C2057      C2062   1.402       .  A
C2057      H2067   1.085       .  S
C2058      C2063   1.482       .  S
C2058      C2059   1.406       .  A
C2059      C2064   1.508       .  S
C2059      C2060   1.403       .  A
C2060      C2061   1.416       .  A
C2060      H2065   1.074       .  S
C2061      C2062   1.431       .  A
C2062      C2066   1.513       .  S
C2063      C2068   1.406       .  A
C2063      C2072   1.397       .  A
C2064      H2080   1.110       .  S
C2064      H2081   1.110       .  S
C2064      H2082   1.111       .  S
C2066      H2077   1.101       .  S
C2066      H2078   1.110       .  S
C2066      H2079   1.111       .  S
C2068      C2073   1.509       .  S
C2068      C2069   1.402       .  A
C2069      C2070   1.415       .  A
C2069      H2074   1.075       .  S
C2070      C2071   1.432       .  A
C2071      C2075   1.512       .  S
C2071      C2072   1.405       .  A
C2072      H2076   1.085       .  S
C2073      H2083   1.111       .  S
C2073      H2084   1.109       .  S
C2073      H2085   1.110       .  S
C2075      H2086   1.110       .  S
C2075      H2087   1.102       .  S
C2075      H2088   1.111       .  S
C2089      C2090   1.400       .  A
C2089      C2094   1.400       .  A
C2089      H2099   1.085       .  S
C2090      C2095   1.477       .  S
C2090      C2091   1.410       .  A
C2091      C2096   1.507       .  S
C2091      C2092   1.403       .  A
C2092      C2093   1.404       .  A
C2092      H2097   1.084       .  S
C2093      C2094   1.417       .  A
C2094      C2098   1.509       .  S
C2095      C2100   1.408       .  A
C2095      C2104   1.398       .  A
C2096      H2112   1.110       .  S
C2096      H2113   1.108       .  S
C2096      H2114   1.111       .  S
C2098      H2109   1.110       .  S
C2098      H2110   1.111       .  S
C2098      H2111   1.107       .  S
C2100      C2105   1.508       .  S
C2100      C2101   1.402       .  A
C2101      C2102   1.410       .  A
C2101      H2106   1.084       .  S
C2102      C2103   1.419       .  A
C2103      C2107   1.502       .  S
C2103      C2104   1.402       .  A
C2104      H2108   1.085       .  S
C2105      H2115   1.111       .  S
C2105      H2116   1.110       .  S
C2105      H2117   1.108       .  S
C2107      H2118   1.111       .  S
C2107      H2119   1.094       .  S
C2107      H2120   1.110       .  S
C2121      C2122   1.400       .  A
C2121      C2126   1.400       .  A
C2121      H2131   1.085       .  S
C2122      C2127   1.479       .  S
C2122      C2123   1.409       .  A
C2123      C2128   1.506       .  S
C2123      C2124   1.404       .  A
C2124      C2125   1.405       .  A
C2124      H2129   1.084       .  S
C2125      C2126   1.415       .  A
C2126      C2130   1.505       .  S
C2127      C2132   1.409       .  A
C2127      C2136   1.401       .  A
C2128      H2144   1.110       .  S
C2128      H2145   1.110       .  S
C2128      H2146   1.111       .  S
C2130      H2141   1.110       .  S
C2130      H2142   1.110       .  S
C2130      H2143   1.100       .  S
C2132      C2137   1.507       .  S
C2132      C2133   1.400       .  A
C2133      C2134   1.405       .  A
C2133      H2138   1.084       .  S
C2134      C2135   1.420       .  A
C2135      C2139   1.508       .  S
C2135      C2136   1.405       .  A
C2136      H2140   1.084       .  S
C2137      H2147   1.111       .  S
C2137      H2148   1.110       .  S
C2137      H2149   1.110       .  S
C2139      H2150   1.111       .  S
C2139      H2151   1.104       .  S
C2139      H2152   1.110       .  S
C2153      C2154   1.398       .  A
C2153      C2158   1.404       .  A
C2153      H2163   1.084       .  S
C2154      C2159   1.479       .  S
C2154      C2155   1.408       .  A
C2155      C2160   1.506       .  S
C2155      C2156   1.403       .  A
C2156      C2157   1.409       .  A
C2156      H2161   1.083   1_554  S
C2157      C2158   1.423       .  A
C2158      C2162   1.508       .  S
C2159      C2164   1.409       .  A
C2159      C2168   1.401       .  A
C2160      H2176   1.110       .  S
C2160      H2177   1.110       .  S
C2160      H2178   1.111       .  S
C2162      H2173   1.111       .  S
C2162      H2174   1.110       .  S
C2162      H2175   1.110       .  S
C2164      C2169   1.507       .  S
C2164      C2165   1.401       .  A
C2165      C2166   1.404       .  A
C2165      H2170   1.084       .  S
C2166      C2167   1.418       .  A
C2167      C2171   1.509       .  S
C2167      C2168   1.405       .  A
C2168      H2172   1.084       .  S
C2169      H2179   1.111       .  S
C2169      H2180   1.110       .  S
C2169      H2181   1.110       .  S
C2171      H2182   1.111       .  S
C2171      H2183   1.108       .  S
C2171      H2184   1.107       .  S
C2185      C2186   1.403       .  A
C2185      C2190   1.406       .  A
C2185      H2195   1.085       .  S
C2186      C2191   1.489       .  S
C2186      C2187   1.413       .  A
C2187      C2192   1.507       .  S
C2187      C2188   1.405       .  A
C2188      C2189   1.404       .  A
C2188      H2193   1.084       .  S
C2189      C2190   1.419       .  A
C2190      C2194   1.508       .  S
C2191      C2196   1.413       .  A
C2191      C2200   1.401       .  A
C2192      H2208   1.109       .  S
C2192      H2209   1.110       .  S
C2192      H2210   1.111       .  S
C2194      H2205   1.110       .  S
C2194      H2206   1.111       .  S
C2194      H2207   1.104       .  S
C2196      C2201   1.506       .  S
C2196      C2197   1.407       .  A
C2197      C2198   1.405       .  A
C2197      H2202   1.084       .  S
C2198      C2199   1.420       .  A
C2199      C2203   1.509       .  S
C2199      C2200   1.402       .  A
C2200      H2204   1.085       .  S
C2201      H2211   1.111       .  S
C2201      H2212   1.109       .  S
C2201      H2213   1.110       .  S
C2203      H2214   1.111       .  S
C2203      H2215   1.104       .  S
C2203      H2216   1.110       .  S
C2217      C2218   1.400       .  A
C2217      C2222   1.408       .  A
C2217      H2227   1.084       .  S
C2218      C2223   1.481       .  S
C2218      C2219   1.407       .  A
C2219      C2224   1.507       .  S
C2219      C2220   1.402       .  A
C2220      C2221   1.409       .  A
C2220      H2225   1.083       .  S
C2221      C2222   1.422       .  A
C2222      C2226   1.507       .  S
C2223      C2228   1.411       .  A
C2223      C2232   1.401       .  A
C2224      H2240   1.110       .  S
C2224      H2241   1.110       .  S
C2224      H2242   1.111       .  S
C2226      H2237   1.110       .  S
C2226      H2238   1.111       .  S
C2226      H2239   1.110       .  S
C2228      C2233   1.505       .  S
C2228      C2229   1.405       .  A
C2229      C2230   1.403       .  A
C2229      H2234   1.084       .  S
C2230      C2231   1.414       .  A
C2231      C2235   1.505       .  S
C2231      C2232   1.402       .  A
C2232      H2236   1.084       .  S
C2233      H2243   1.111       .  S
C2233      H2244   1.110       .  S
C2233      H2245   1.110       .  S
C2235      H2246   1.110       .  S
C2235      H2247   1.103       .  S
C2235      H2248   1.110       .  S
C2249      C2250   1.398       .  A
C2249      C2254   1.404       .  A
C2249      H2259   1.084       .  S
C2250      C2255   1.481       .  S
C2250      C2251   1.410       .  A
C2251      C2256   1.506       .  S
C2251      C2252   1.405       .  A
C2252      C2253   1.405       .  A
C2252      H2257   1.084       .  S
C2253      C2254   1.419       .  A
C2254      C2258   1.504       .  S
C2255      C2260   1.411       .  A
C2255      C2264   1.397       .  A
C2256      H2272   1.110       .  S
C2256      H2273   1.110       .  S
C2256      H2274   1.111       .  S
C2258      H2269   1.106       .  S
C2258      H2270   1.111       .  S
C2258      H2271   1.106       .  S
C2260      C2265   1.505       .  S
C2260      C2261   1.407       .  A
C2261      C2262   1.405       .  A
C2261      H2266   1.083       .  S
C2262      C2263   1.423       .  A
C2263      C2267   1.508       .  S
C2263      C2264   1.400       .  A
C2264      H2268   1.085       .  S
C2265      H2275   1.111       .  S
C2265      H2276   1.111       .  S
C2265      H2277   1.110       .  S
C2267      H2278   1.111       .  S
C2267      H2279   1.103       .  S
C2267      H2280   1.110       .  S
C2281      C2282   1.401       .  A
C2281      C2286   1.406       .  A
C2281      H2291   1.084       .  S
C2282      C2287   1.483       .  S
C2282      C2283   1.410       .  A
C2283      C2288   1.507       .  S
C2283      C2284   1.404       .  A
C2284      C2285   1.406       .  A
C2284      H2289   1.084       .  S
C2285      C2286   1.419       .  A
C2286      C2290   1.508       .  S
C2287      C2292   1.410       .  A
C2287      C2296   1.400       .  A
C2288      H2304   1.110       .  S
C2288      H2305   1.110       .  S
C2288      H2306   1.111       .  S
C2290      H2301   1.111       .  S
C2290      H2302   1.110       .  S
C2290      H2303   1.106       .  S
C2292      C2297   1.506       .  S
C2292      C2293   1.404       .  A
C2293      C2294   1.404       .  A
C2293      H2298   1.082       .  S
C2294      C2295   1.418       .  A
C2295      C2299   1.506       .  S
C2295      C2296   1.404       .  A
C2296      H2300   1.084       .  S
C2297      H2307   1.111       .  S
C2297      H2308   1.110       .  S
C2297      H2309   1.110       .  S
C2299      H2310   1.110       .  S
C2299      H2311   1.102       .  S
C2299      H2312   1.110       .  S
C2313      C2314   1.401       .  A
C2313      C2318   1.408       .  A
C2313      H2323   1.084       .  S
C2314      C2319   1.483       .  S
C2314      C2315   1.407       .  A
C2315      C2320   1.507       .  S
C2315      C2316   1.402       .  A
C2316      C2317   1.410       .  A
C2316      H2321   1.083       .  S
C2317      C2318   1.422       .  A
C2318      C2322   1.507       .  S
C2319      C2324   1.412       .  A
C2319      C2328   1.400       .  A
C2320      H2336   1.110       .  S
C2320      H2337   1.110       .  S
C2320      H2338   1.111       .  S
C2322      H2333   1.111       .  S
C2322      H2334   1.110       .  S
C2322      H2335   1.110       .  S
C2324      C2329   1.506       .  S
C2324      C2325   1.406       .  A
C2325      C2326   1.402       .  A
C2325      H2330   1.084       .  S
C2326      C2327   1.416       .  A
C2327      C2331   1.507       .  S
C2327      C2328   1.402       .  A
C2328      H2332   1.085       .  S
C2329      H2339   1.111       .  S
C2329      H2340   1.110       .  S
C2329      H2341   1.110       .  S
C2331      H2342   1.110       .  S
C2331      H2343   1.105       .  S
C2331      H2344   1.111       .  S
C2345      C2346   1.401       .  A
C2345      C2350   1.407       .  A
C2345      H2355   1.084       .  S
C2346      C2351   1.484       .  S
C2346      C2347   1.409       .  A
C2347      C2352   1.507       .  S
C2347      C2348   1.404       .  A
C2348      C2349   1.410       .  A
C2348      H2353   1.083       .  S
C2349      C2350   1.421       .  A
C2350      C2354   1.507       .  S
C2351      C2356   1.410       .  A
C2351      C2360   1.401       .  A
C2352      H2368   1.110       .  S
C2352      H2369   1.110       .  S
C2352      H2370   1.111       .  S
C2354      H2365   1.111       .  S
C2354      H2366   1.110   1_556  S
C2354      H2367   1.110   1_556  S
C2356      C2361   1.506       .  S
C2356      C2357   1.404       .  A
C2357      C2358   1.407       .  A
C2357      H2362   1.084       .  S
C2358      C2359   1.416       .  A
C2359      C2363   1.505       .  S
C2359      C2360   1.403       .  A
C2360      H2364   1.085       .  S
C2361      H2371   1.111       .  S
C2361      H2372   1.110       .  S
C2361      H2373   1.110       .  S
C2363      H2374   1.111       .  S
C2363      H2375   1.103       .  S
C2363      H2376   1.110       .  S
C2377      C2378   1.401       .  A
C2377      C2382   1.405       .  A
C2377      H2387   1.084       .  S
C2378      C2383   1.482       .  S
C2378      C2379   1.411       .  A
C2379      C2384   1.507       .  S
C2379      C2380   1.403       .  A
C2380      C2381   1.402       .  A
C2380      H2385   1.084       .  S
C2381      C2382   1.414       .  A
C2382      C2386   1.504       .  S
C2383      C2388   1.410       .  A
C2383      C2392   1.402       .  A
C2384      H2400   1.110       .  S
C2384      H2401   1.111       .  S
C2384      H2402   1.111       .  S
C2386      H2397   1.108       .  S
C2386      H2398   1.111       .  S
C2386      H2399   1.110       .  S
C2388      C2393   1.507       .  S
C2388      C2389   1.402       .  A
C2389      C2390   1.406       .  A
C2389      H2394   1.084       .  S
C2390      C2391   1.416       .  A
C2391      C2395   1.506       .  S
C2391      C2392   1.405       .  A
C2392      H2396   1.084       .  S
C2393      H2403   1.111       .  S
C2393      H2404   1.110       .  S
C2393      H2405   1.111       .  S
C2395      H2406   1.111       .  S
C2395      H2407   1.110       .  S
C2395      H2408   1.109       .  S
C2409      C2410   1.398       .  A
C2409      C2414   1.409       .  A
C2409      H2419   1.085       .  S
C2410      C2415   1.491       .  S
C2410      C2411   1.406       .  A
C2411      C2416   1.509       .  S
C2411      C2412   1.404       .  A
C2412      C2413   1.417       .  A
C2412      H2417   1.074       .  S
C2413      C2414   1.433       .  A
C2414      C2418   1.511       .  S
C2415      C2420   1.407       .  A
C2415      C2424   1.397       .  A
C2416      H2432   1.110       .  S
C2416      H2433   1.110       .  S
C2416      H2434   1.111       .  S
C2418      H2429   1.111       .  S
C2418      H2430   1.110       .  S
C2418      H2431   1.102       .  S
C2420      C2425   1.508       .  S
C2420      C2421   1.408       .  A
C2421      C2422   1.416       .  A
C2421      H2426   1.074       .  S
C2422      C2423   1.433       .  A
C2423      C2427   1.513       .  S
C2423      C2424   1.406       .  A
C2424      H2428   1.085       .  S
C2425      H2435   1.111       .  S
C2425      H2436   1.110       .  S
C2425      H2437   1.110       .  S
C2427      H2438   1.111       .  S
C2427      H2439   1.101       .  S
C2427      H2440   1.111       .  S
C2441      C2442   1.401       .  A
C2441      C2446   1.407       .  A
C2441      H2451   1.084       .  S
C2442      C2447   1.485       .  S
C2442      C2443   1.411       .  A
C2443      C2448   1.507       .  S
C2443      C2444   1.405       .  A
C2444      C2445   1.406       .  A
C2444      H2449   1.084       .  S
C2445      C2446   1.418       .  A
C2446      C2450   1.506       .  S
C2447      C2452   1.411       .  A
C2447      C2456   1.399       .  A
C2448      H2464   1.110       .  S
C2448      H2465   1.109       .  S
C2448      H2466   1.111       .  S
C2450      H2461   1.106       .  S
C2450      H2462   1.111       .  S
C2450      H2463   1.108       .  S
C2452      C2457   1.506       .  S
C2452      C2453   1.408       .  A
C2453      C2454   1.406       .  A
C2453      H2458   1.081       .  S
C2454      C2455   1.419       .  A
C2455      C2459   1.508       .  S
C2455      C2456   1.403       .  A
C2456      H2460   1.085       .  S
C2457      H2467   1.111       .  S
C2457      H2468   1.110       .  S
C2457      H2469   1.109       .  S
C2459      H2470   1.111       .  S
C2459      H2471   1.105       .  S
C2459      H2472   1.110       .  S
C2473      C2474   1.402       .  A
C2473      C2478   1.405       .  A
C2473      H2483   1.084       .  S
C2474      C2479   1.485       .  S
C2474      C2475   1.412       .  A
C2475      C2480   1.506       .  S
C2475      C2476   1.404       .  A
C2476      C2477   1.401       .  A
C2476      H2481   1.082       .  S
C2477      C2478   1.416       .  A
C2478      C2482   1.507       .  S
C2479      C2484   1.408       .  A
C2479      C2488   1.401       .  A
C2480      H2496   1.110       .  S
C2480      H2497   1.110       .  S
C2480      H2498   1.111       .  S
C2482      H2493   1.110       .  S
C2482      H2494   1.110       .  S
C2482      H2495   1.108       .  S
C2484      C2489   1.507       .  S
C2484      C2485   1.403       .  A
C2485      C2486   1.410       .  A
C2485      H2490   1.083       .  S
C2486      C2487   1.422       .  A
C2487      C2491   1.507       .  S
C2487      C2488   1.409       .  A
C2488      H2492   1.084       .  S
C2489      H2499   1.111       .  S
C2489      H2500   1.110       .  S
C2489      H2501   1.110       .  S
C2491      H2502   1.111       .  S
C2491      H2503   1.110       .  S
C2491      H2504   1.110   1_556  S
C2505      C2506   1.400       .  A
C2505      C2510   1.405       .  A
C2505      H2515   1.085       .  S
C2506      C2511   1.485       .  S
C2506      C2507   1.411       .  A
C2507      C2512   1.506       .  S
C2507      C2508   1.405       .  A
C2508      C2509   1.405       .  A
C2508      H2513   1.084       .  S
C2509      C2510   1.421       .  A
C2510      C2514   1.508       .  S
C2511      C2516   1.410       .  A
C2511      C2520   1.402       .  A
C2512      H2528   1.110       .  S
C2512      H2529   1.109       .  S
C2512      H2530   1.111       .  S
C2514      H2525   1.111       .  S
C2514      H2526   1.110       .  S
C2514      H2527   1.104       .  S
C2516      C2521   1.507       .  S
C2516      C2517   1.404       .  A
C2517      C2518   1.406       .  A
C2517      H2522   1.084       .  S
C2518      C2519   1.419       .  A
C2519      C2523   1.508       .  S
C2519      C2520   1.407       .  A
C2520      H2524   1.084       .  S
C2521      H2531   1.111       .  S
C2521      H2532   1.110       .  S
C2521      H2533   1.109       .  S
C2523      H2534   1.110       .  S
C2523      H2535   1.106       .  S
C2523      H2536   1.110       .  S
C2537      C2538   1.402       .  A
C2537      C2542   1.402       .  A
C2537      H2547   1.084       .  S
C2538      C2543   1.485       .  S
C2538      C2539   1.412       .  A
C2539      C2544   1.505       .  S
C2539      C2540   1.407       .  A
C2540      C2541   1.403       .  A
C2540      H2545   1.084       .  S
C2541      C2542   1.410       .  A
C2542      C2546   1.502       .  S
C2543      C2548   1.409       .  A
C2543      C2552   1.402       .  A
C2544      H2560   1.110       .  S
C2544      H2561   1.110       .  S
C2544      H2562   1.111       .  S
C2546      H2557   1.109       .  S
C2546      H2558   1.111       .  S
C2546      H2559   1.109       .  S
C2548      C2553   1.508       .  S
C2548      C2549   1.402       .  A
C2549      C2550   1.407       .  A
C2549      H2554   1.084       .  S
C2550      C2551   1.422       .  A
C2551      C2555   1.508       .  S
C2551      C2552   1.408       .  A
C2552      H2556   1.084       .  S
C2553      H2563   1.111       .  S
C2553      H2564   1.110       .  S
C2553      H2565   1.111       .  S
C2555      H2566   1.111       .  S
C2555      H2567   1.104       .  S
C2555      H2568   1.110       .  S
C2569      C2570   1.399       .  A
C2569      C2574   1.402       .  A
C2569      H2579   1.085       .  S
C2570      C2575   1.483       .  S
C2570      C2571   1.411       .  A
C2571      C2576   1.506       .  S
C2571      C2572   1.405       .  A
C2572      C2573   1.404       .  A
C2572      H2577   1.085       .  S
C2573      C2574   1.419       .  A
C2574      C2578   1.508       .  S
C2575      C2580   1.409       .  A
C2575      C2584   1.399       .  A
C2576      H2592   1.110       .  S
C2576      H2593   1.111       .  S
C2576      H2594   1.111       .  S
C2578      H2589   1.110       .  S
C2578      H2590   1.111       .  S
C2578      H2591   1.104       .  S
C2580      C2585   1.506       .  S
C2580      C2581   1.405       .  A
C2581      C2582   1.409       .  A
C2581      H2586   1.083       .  S
C2582      C2583   1.423       .  A
C2583      C2587   1.508       .  S
C2583      C2584   1.405       .  A
C2584      H2588   1.084       .  S
C2585      H2595   1.111       .  S
C2585      H2596   1.110       .  S
C2585      H2597   1.110       .  S
C2587      H2598   1.111       .  S
C2587      H2599   1.110       .  S
C2587      H2600   1.110       .  S
C2601      C2602   1.395       .  A
C2601      C2606   1.401       .  A
C2601      H2611   1.085       .  S
C2602      C2607   1.478       .  S
C2602      C2603   1.405       .  A
C2603      C2608   1.508       .  S
C2603      C2604   1.403       .  A
C2604      C2605   1.415       .  A
C2604      H2609   1.075       .  S
C2605      C2606   1.431       .  A
C2606      C2610   1.512       .  S
C2607      C2612   1.404       .  A
C2607      C2616   1.395       .  A
C2608      H2624   1.110       .  S
C2608      H2625   1.111       .  S
C2608      H2626   1.111       .  S
C2610      H2621   1.111       .  S
C2610      H2622   1.110       .  S
C2610      H2623   1.102       .  S
C2612      C2617   1.509       .  S
C2612      C2613   1.400       .  A
C2613      C2614   1.416       .  A
C2613      H2618   1.074       .  S
C2614      C2615   1.432       .  A
C2615      C2619   1.511       .  S
C2615      C2616   1.403       .  A
C2616      H2620   1.085       .  S
C2617      H2627   1.111       .  S
C2617      H2628   1.109       .  S
C2617      H2629   1.110       .  S
C2619      H2630   1.111       .  S
C2619      H2631   1.098       .  S
C2619      H2632   1.111       .  S
C2633      C2634   1.395       .  A
C2633      C2638   1.404       .  A
C2633      H2643   1.085       .  S
C2634      C2639   1.487       .  S
C2634      C2635   1.407       .  A
C2635      C2640   1.507       .  S
C2635      C2636   1.407       .  A
C2636      C2637   1.415       .  A
C2636      H2641   1.075       .  S
C2637      C2638   1.433       .  A
C2638      C2642   1.513       .  S
C2639      C2644   1.408       .  A
C2639      C2648   1.396       .  A
C2640      H2656   1.110       .  S
C2640      H2657   1.110       .  S
C2640      H2658   1.111       .  S
C2642      H2653   1.111       .  S
C2642      H2654   1.111       .  S
C2642      H2655   1.101       .  S
C2644      C2649   1.508       .  S
C2644      C2645   1.405       .  A
C2645      C2646   1.415       .  A
C2645      H2650   1.076       .  S
C2646      C2647   1.433       .  A
C2647      C2651   1.512       .  S
C2647      C2648   1.405       .  A
C2648      H2652   1.085       .  S
C2649      H2659   1.111       .  S
C2649      H2660   1.110       .  S
C2649      H2661   1.110       .  S
C2651      H2662   1.110       .  S
C2651      H2663   1.102       .  S
C2651      H2664   1.111       .  S
C2665      C2666   1.399       .  A
C2665      C2670   1.400       .  A
C2665      H2675   1.085       .  S
C2666      C2671   1.482       .  S
C2666      C2667   1.413       .  A
C2667      C2672   1.507       .  S
C2667      C2668   1.407       .  A
C2668      C2669   1.404       .  A
C2668      H2673   1.084       .  S
C2669      C2670   1.418       .  A
C2670      C2674   1.509       .  S
C2671      C2676   1.411       .  A
C2671      C2680   1.400       .  A
C2672      H2688   1.110       .  S
C2672      H2689   1.108       .  S
C2672      H2690   1.111       .  S
C2674      H2685   1.110       .  S
C2674      H2686   1.111       .  S
C2674      H2687   1.107       .  S
C2676      C2681   1.507       .  S
C2676      C2677   1.405       .  A
C2677      C2678   1.405       .  A
C2677      H2682   1.084       .  S
C2678      C2679   1.417       .  A
C2679      C2683   1.505       .  S
C2679      C2680   1.404       .  A
C2680      H2684   1.084       .  S
C2681      H2691   1.111       .  S
C2681      H2692   1.110       .  S
C2681      H2693   1.108       .  S
C2683      H2694   1.111       .  S
C2683      H2695   1.109       .  S
C2683      H2696   1.106       .  S
C2697      C2698   1.401       .  A
C2697      C2702   1.404       .  A
C2697      H2707   1.084       .  S
C2698      C2703   1.480       .  S
C2698      C2699   1.410       .  A
C2699      C2704   1.506       .  S
C2699      C2700   1.402       .  A
C2700      C2701   1.404       .  A
C2700      H2705   1.084       .  S
C2701      C2702   1.415       .  A
C2702      C2706   1.506       .  S
C2703      C2708   1.408       .  A
C2703      C2712   1.399       .  A
C2704      H2720   1.110       .  S
C2704      H2721   1.110       .  S
C2704      H2722   1.111       .  S
C2706      H2717   1.107       .  S
C2706      H2718   1.111       .  S
C2706      H2719   1.110       .  S
C2708      C2713   1.507       .  S
C2708      C2709   1.403       .  A
C2709      C2710   1.409       .  A
C2709      H2714   1.084       .  S
C2710      C2711   1.422       .  A
C2711      C2715   1.508   1_556  S
C2711      C2712   1.405       .  A
C2712      H2716   1.084       .  S
C2713      H2723   1.111       .  S
C2713      H2724   1.110       .  S
C2713      H2725   1.110       .  S
C2715      H2726   1.110       .  S
C2715      H2727   1.110       .  S
C2715      H2728   1.111       .  S
C2729      C2730   1.402       .  A
C2729      C2734   1.402       .  A
C2729      H2739   1.085       .  S
C2730      C2735   1.483       .  S
C2730      C2731   1.412       .  A
C2731      C2736   1.506       .  S
C2731      C2732   1.403       .  A
C2732      C2733   1.404       .  A
C2732      H2737   1.084       .  S
C2733      C2734   1.413       .  A
C2734      C2738   1.505       .  S
C2735      C2740   1.411       .  A
C2735      C2744   1.402       .  A
C2736      H2752   1.109       .  S
C2736      H2753   1.110       .  S
C2736      H2754   1.111       .  S
C2738      H2749   1.111       .  S
C2738      H2750   1.103       .  S
C2738      H2751   1.110       .  S
C2740      C2745   1.507       .  S
C2740      C2741   1.404       .  A
C2741      C2742   1.405       .  A
C2741      H2746   1.084       .  S
C2742      C2743   1.417       .  A
C2743      C2747   1.507       .  S
C2743      C2744   1.405       .  A
C2744      H2748   1.084       .  S
C2745      H2755   1.111       .  S
C2745      H2756   1.109       .  S
C2745      H2757   1.111       .  S
C2747      H2758   1.111       .  S
C2747      H2759   1.110       .  S
C2747      H2760   1.110       .  S
