geometry optimzed in LAMMPS
_audit_creation_date              2020-11-30 
_audit_creation_method            'lammps2cif' 
_symmetry_space_group_name_H-M    'P1' 
_symmetry_Int_Tables_number       1 
_symmetry_cell_setting            triclinic 
loop_ 
_symmetry_equiv_pos_as_xyz 
  x,y,z 
_cell_length_a                    40.85471955 
_cell_length_b                    40.904369742687926 
_cell_length_c                    55.81643504905785 
_cell_angle_alpha                 89.8732875753782 
_cell_angle_beta                  89.3639484743562 
_cell_angle_gamma                 122.38787156327109 
loop_ 
_atom_site_label 
_atom_site_type_symbol 
_atom_site_fract_x 
_atom_site_fract_y 
_atom_site_fract_z 
_atom_site_charge 
C1          C  0.83233310  0.35770347  0.65123731     0.88600
C2          C  0.85191470  0.35787915  0.67479053    -0.51700
C3          C  0.83335385  0.36001806  0.69481667     0.11500
C4          C  0.79756796  0.36193005  0.68947022     0.22400
C5          C  0.78997509  0.32373110  0.65424052    -0.52400
C6          C  0.77197211  0.32618182  0.67418949     0.11600
C7          C  0.83068130  0.39432580  0.65229624    -0.51900
C8          C  0.81220850  0.39625224  0.67207698     0.12200
H9          H  0.87736348  0.35594807  0.67556201     0.16700
H10         H  0.78247093  0.36370704  0.70564117     0.02400
H11         H  0.77526666  0.30054356  0.64135202     0.17000
H12         H  0.84135627  0.41582687  0.63797204     0.16800
C13         C  0.81866215  0.34532031  0.85490485     0.88600
C14         C  0.81569276  0.38130363  0.85412904    -0.51700
C15         C  0.79982775  0.38459068  0.83365253     0.11500
C16         C  0.78804505  0.35179261  0.81583285     0.22400
C17         C  0.77693341  0.31118399  0.85065397    -0.52400
C18         C  0.76100245  0.31485003  0.83032376     0.11600
C19         C  0.84133996  0.34798833  0.83188380    -0.51900
C20         C  0.82494843  0.35127862  0.81144037     0.12200
H21         H  0.82412405  0.40157051  0.86880600     0.16700
H22         H  0.77477311  0.35454966  0.79927718     0.02400
H23         H  0.76058239  0.28747606  0.86335119     0.17000
H24         H  0.86738340  0.34702845  0.83178074     0.16800
C25         C  0.68947104  0.51688445  0.64615135     0.88600
C26         C  0.69445730  0.53941593  0.66932328    -0.51700
C27         C  0.69745438  0.52173094  0.68930213     0.11500
C28         C  0.69541700  0.48377048  0.68435033     0.22400
C29         C  0.72408172  0.51154644  0.64526597    -0.52400
C30         C  0.72708433  0.49445364  0.66540431     0.11600
C31         C  0.65415105  0.47592664  0.65114524    -0.51900
C32         C  0.65748103  0.45867323  0.67093547     0.12200
H33         H  0.69480659  0.56612674  0.66991483     0.16700
H34         H  0.69786048  0.46940621  0.70056439     0.02400
H35         H  0.74340920  0.51913409  0.62987060     0.17000
H36         H  0.62946805  0.46095657  0.63932659     0.16800
C37         C  0.69544423  0.52443950  0.84939405     0.88600
C38         C  0.65713877  0.48514620  0.84659331    -0.51700
C39         C  0.65641625  0.46526540  0.82691192     0.11500
C40         C  0.69360982  0.48614011  0.81163431     0.22400
C41         C  0.72725264  0.51506503  0.84871341    -0.52400
C42         C  0.72590586  0.49470931  0.82911325     0.11600
C43         C  0.70062959  0.54616768  0.82563847    -0.51900
C44         C  0.69961821  0.52577588  0.80589723     0.12200
H45         H  0.63331502  0.47351595  0.85951698     0.16700
H46         H  0.69272243  0.46953874  0.79563859     0.02400
H47         H  0.74762829  0.52206698  0.86310524     0.17000
H48         H  0.70420395  0.57440855  0.82452814     0.16800
C49         C  0.52613808  0.20661552  0.64972942     0.88600
C50         C  0.50058523  0.18749106  0.67225898    -0.51700
C51         C  0.51790751  0.20711646  0.69281146     0.11500
C52         C  0.55850866  0.24347130  0.68906056     0.22400
C53         C  0.53625300  0.24870931  0.64982757    -0.52400
C54         C  0.55304301  0.26768847  0.67052974     0.11600
C55         C  0.56470381  0.21003939  0.65522261    -0.51900
C56         C  0.58162040  0.22954597  0.67564218     0.12200
H57         H  0.47194276  0.16116201  0.67198179     0.16700
H58         H  0.57252897  0.25938001  0.70577438     0.02400
H59         H  0.53187865  0.26255847  0.63465324     0.17000
H60         H  0.57876232  0.20023147  0.64318344     0.16800
C61         C  0.51263841  0.21574572  0.85155758     0.88600
C62         C  0.55202429  0.21932566  0.84926282    -0.51700
C63         C  0.57242481  0.23822772  0.82906578     0.11500
C64         C  0.55179797  0.25164331  0.81277066     0.22400
C65         C  0.52215462  0.25749499  0.84925246    -0.52400
C66         C  0.54276479  0.27611299  0.82897645     0.11600
C67         C  0.49138023  0.19582170  0.82830665    -0.51900
C68         C  0.51212292  0.21487899  0.80805105     0.12200
H69         H  0.56322059  0.20881248  0.86278368     0.16700
H70         H  0.56869130  0.26710932  0.79630611     0.02400
H71         H  0.51460421  0.27144000  0.86282727     0.17000
H72         H  0.46293744  0.16926297  0.82789706     0.16800
In73       In  0.46034210  0.14798301  0.54447668     1.36900
C74         C  0.40733474  0.07243187  0.54686869     0.79700
O75         O  0.48231226  0.13439820  0.51089834    -0.58800
O76         O  0.52142772  0.16279932  0.53932958    -0.49700
C77         C  0.45417116  0.20224365  0.52269654     0.72300
O78         O  0.42488638  0.16937501  0.52783702    -0.44600
C79         C  0.47151116  0.17018189  0.59009451     0.77000
O80         O  0.43611153  0.08897585  0.56035987    -0.56400
O81         O  0.49364475  0.16352779  0.57817864    -0.46500
O82         O  0.40450965  0.09451138  0.53246782    -0.52800
C83         C  0.51614390  0.14883602  0.51866277     0.87200
O84         O  0.48608140  0.20749834  0.52902413    -0.54700
O85         O  0.44275826  0.16531209  0.57866957    -0.58000
In86       In  0.48127280  0.35737605  0.46349922     1.36900
C87         C  0.42646972  0.37405699  0.46452154     0.79700
O88         O  0.51067742  0.39396128  0.49581682    -0.58800
O89         O  0.53941715  0.41325254  0.46199138    -0.49700
C90         C  0.46288162  0.29313931  0.48709334     0.72300
O91         O  0.44311943  0.29284244  0.46980544    -0.44600
C92         C  0.50240772  0.34606801  0.42045308     0.77000
O93         O  0.42067798  0.34277081  0.47292161    -0.56400
O94         O  0.51886670  0.34691236  0.43952943    -0.46500
O95         O  0.45953851  0.39613058  0.45533121    -0.52800
C96         C  0.54014040  0.41922998  0.48414771     0.87200
O97         O  0.49132195  0.32597909  0.49248161    -0.54700
O98         O  0.47417926  0.35022953  0.42320544    -0.58000
In99       In  0.66822994  0.15781812  0.46323476     1.36900
C100        C  0.64840022  0.08420004  0.46269230     0.79700
O101        O  0.62713102  0.14320956  0.49445778    -0.58800
O102        O  0.61786184  0.16593007  0.46278461    -0.49700
C103        C  0.73270426  0.20808732  0.48698786     0.72300
O104        O  0.73362599  0.19438252  0.46700230    -0.44600
C105        C  0.67751374  0.18592130  0.41880672     0.77000
O106        O  0.68129415  0.11112301  0.46942523    -0.56400
O107        O  0.67635426  0.20323601  0.43710788    -0.46500
O108        O  0.62616731  0.09484591  0.45618058    -0.52800
C109        C  0.60682561  0.15333780  0.48383866     0.87200
O110        O  0.69915504  0.19547459  0.49515525    -0.54700
O111        O  0.67509960  0.15443088  0.42312173    -0.58000
In112      In  0.88055289  0.36567637  0.53915415     1.36900
C113        C  0.95500559  0.38725447  0.53916886     0.79700
O114        O  0.89049919  0.40064505  0.50560993    -0.58800
O115        O  0.87473679  0.41726987  0.53763270    -0.49700
C116        C  0.82667117  0.29891705  0.51901328     0.72300
O117        O  0.84079667  0.29999014  0.53915459    -0.44600
C118        C  0.85197953  0.35928037  0.58321304     0.77000
O119        O  0.92877098  0.35511764  0.53100123    -0.56400
O120        O  0.83797472  0.36483762  0.56480862    -0.46500
O121        O  0.94323572  0.40773849  0.54749198    -0.52800
C122        C  0.88295519  0.42350048  0.51561576     0.87200
O123        O  0.84125859  0.33128751  0.50880761    -0.54700
O124        O  0.88089984  0.35655419  0.57927121    -0.58000
In125      In  0.88727751  0.56755445  0.45396259     1.36900
C126        C  0.96295060  0.62040073  0.45445784     0.79700
O127        O  0.90274303  0.54502368  0.48591166    -0.58800
O128        O  0.86604712  0.50472851  0.45976584    -0.49700
C129        C  0.83392900  0.57692156  0.47482536     0.72300
O130        O  0.86637623  0.60519397  0.46791114    -0.44600
C131        C  0.86933366  0.55647962  0.40775684     0.77000
O132        O  0.93967963  0.62089802  0.46920906    -0.56400
O133        O  0.87841534  0.53637339  0.41965806    -0.46500
O134        O  0.94751413  0.59426383  0.43900614    -0.52800
C135        C  0.88389965  0.51041966  0.47906453     0.87200
O136        O  0.82841500  0.54414113  0.47061448    -0.54700
O137        O  0.86988210  0.58313419  0.41942939    -0.58000
In138      In  0.69068991  0.57135063  0.53884554     1.36900
C139        C  0.66861555  0.62173392  0.54086417     0.79700
O140        O  0.64770953  0.54629859  0.50885567    -0.58800
O141        O  0.64666267  0.50781147  0.53492853    -0.49700
C142        C  0.74958081  0.57901192  0.51294500     0.72300
O143        O  0.74535771  0.60699390  0.51646282    -0.44600
C144        C  0.70534241  0.56648069  0.58478405     0.77000
O145        O  0.69823084  0.62878750  0.52904519    -0.56400
O146        O  0.67318556  0.54428185  0.57512187    -0.46500
O147        O  0.65107569  0.58973531  0.55175553    -0.52800
C148        C  0.63207543  0.51192588  0.51631448     0.87200
O149        O  0.72435606  0.54766444  0.52288428    -0.54700
O150        O  0.73079895  0.59201237  0.57089815    -0.58000
In151      In  0.14917448  0.48625875  0.53994196     1.36900
C152        C  0.07205299  0.43878537  0.53997331     0.79700
O153        O  0.15891902  0.46432931  0.57507143    -0.58800
O154        O  0.16663145  0.51972362  0.57420354    -0.49700
C155        C  0.20045307  0.47406970  0.51790406     0.72300
O156        O  0.16708867  0.44669433  0.52421946    -0.44600
C157        C  0.15467363  0.54484816  0.51520375     0.77000
O158        O  0.09371786  0.43399371  0.52615364    -0.56400
O159        O  0.17123485  0.54938861  0.53489762    -0.46500
O160        O  0.08966166  0.46659580  0.55416877    -0.52800
C161        C  0.16729084  0.49432033  0.58657790     0.87200
O162        O  0.20773810  0.50720304  0.52311320    -0.54700
O163        O  0.13618349  0.51060447  0.50765351    -0.58000
In164      In  0.35240795  0.48271973  0.46270940     1.36900
C165        C  0.36802198  0.42754404  0.46651451     0.79700
O166        O  0.32470280  0.48179055  0.42789132    -0.58800
O167        O  0.38349221  0.49853995  0.42674570    -0.53300
C168        C  0.28767805  0.47168495  0.48322713     0.72300
O169        O  0.29645401  0.44645420  0.48420241    -0.44600
C170        C  0.40648024  0.54520646  0.48568056     0.77000
O171        O  0.33811617  0.42166003  0.45609693    -0.56400
O172        O  0.40129568  0.54545114  0.46348148    -0.46500
O173        O  0.38820000  0.46023895  0.47592814    -0.52800
C174        C  0.35470751  0.49311737  0.41522033     0.87200
O175        O  0.31120681  0.50167755  0.47141640    -0.54700
O176        O  0.38372432  0.51348759  0.49619868    -0.58000
In177      In  0.15156268  0.68992313  0.45985073     1.36900
C178        C  0.07865479  0.67204520  0.45810551     0.79700
O179        O  0.17568570  0.72740224  0.42640452    -0.58800
O180        O  0.15342036  0.66740041  0.42382635    -0.49700
C181        C  0.20377018  0.74967835  0.48571702     0.72300
O182        O  0.16783075  0.73332111  0.48940176    -0.44600
C183        C  0.15512403  0.63386759  0.48164867     0.77000
O184        O  0.10676322  0.70653244  0.45985009    -0.56400
O185        O  0.17194847  0.64859521  0.46193587    -0.46500
O186        O  0.08774971  0.64719607  0.45731413    -0.52800
C187        C  0.16969827  0.69974940  0.41327546     0.87200
O188        O  0.21311356  0.73586942  0.46876692    -0.54700
O189        O  0.13705272  0.64813189  0.49054862    -0.58000
In190      In  0.34860528  0.88852395  0.55182541     1.36900
C191        C  0.35667906  0.95724628  0.54840028     0.79700
O192        O  0.31848814  0.86884273  0.58794896    -0.58800
O193        O  0.37808753  0.88839283  0.58555355    -0.49700
C194        C  0.28766484  0.83575185  0.52670617     0.72300
O195        O  0.30569002  0.87133897  0.52179226    -0.44600
C196        C  0.40932567  0.88984662  0.53266216     0.77000
O197        O  0.36772171  0.94384057  0.53218104    -0.56400
O198        O  0.37675248  0.85897778  0.53548479    -0.46500
O199        O  0.33949166  0.93480369  0.56596512    -0.52800
C200        C  0.34819280  0.87483928  0.59868062     0.87200
O201        O  0.29965108  0.82721933  0.54485426    -0.54700
O202        O  0.41126581  0.91982265  0.54011896    -0.58000
In203      In  0.55653213  0.69395697  0.54313444     1.36900
C204        C  0.60955489  0.67510726  0.54326154     0.79700
O205        O  0.56252017  0.69429589  0.58364143    -0.58800
O206        O  0.51837831  0.70039610  0.56893107    -0.49700
C207        C  0.57658686  0.76030690  0.52106212     0.72300
O208        O  0.58611062  0.75924906  0.54228700    -0.44600
C209        C  0.49588466  0.63620347  0.52062258     0.77000
O210        O  0.61788376  0.70844140  0.53717365    -0.56400
O211        O  0.49310950  0.64695200  0.54123668    -0.46500
O212        O  0.57492462  0.65220809  0.54982724    -0.52800
C213        C  0.53420953  0.69805731  0.58752074     0.87200
O214        O  0.55885006  0.72811144  0.51079627    -0.54700
O215        O  0.52945473  0.65468519  0.51150388    -0.58000
In216      In  0.55091931  0.89143321  0.46899915     1.36900
C217        C  0.59814968  0.96782421  0.46422484     0.79700
O218        O  0.56118500  0.88498717  0.42984609    -0.58800
O219        O  0.50606155  0.84525332  0.44535913    -0.49700
C220        C  0.57222764  0.84706303  0.48993695     0.72300
O221        O  0.59327960  0.87228623  0.47437525    -0.44600
C222        C  0.49722655  0.89226314  0.49581145     0.77000
O223        O  0.60614692  0.94807536  0.47743878    -0.56400
O224        O  0.49169302  0.88137791  0.47433617    -0.46500
O225        O  0.56711548  0.94855467  0.45283631    -0.52800
C226        C  0.52736376  0.85607757  0.42687304     0.87200
O227        O  0.54138601  0.84539406  0.49514755    -0.54700
O228        O  0.53031541  0.90310420  0.50368342    -0.58000
C229        C  0.34457135  0.83292447  0.85873358     0.88600
C230        C  0.34616721  0.85501062  0.83596660    -0.51700
C231        C  0.34866021  0.83844958  0.81541314     0.11500
C232        C  0.34929863  0.80160431  0.81932567     0.22400
C233        C  0.31014199  0.79112097  0.85510196    -0.52400
C234        C  0.31294082  0.77480150  0.83451348     0.11600
C235        C  0.38080754  0.83039270  0.85698069    -0.51900
C236        C  0.38296475  0.81377573  0.83640319     0.12200
H237        H  0.34569369  0.88132385  0.83608572     0.16700
H238        H  0.35136204  0.78814754  0.80255495     0.02400
H239        H  0.28675175  0.77539525  0.86812413     0.17000
H240        H  0.40188196  0.83941091  0.87115332     0.16800
C241        C  0.37501934  0.84798081  0.65840149     0.88600
C242        C  0.41135805  0.84701576  0.66368816    -0.51700
C243        C  0.40906152  0.82876385  0.68464188     0.11500
C244        C  0.37110667  0.81371552  0.69873092     0.22400
C245        C  0.34142876  0.80524558  0.65989364    -0.52400
C246        C  0.33937801  0.78757597  0.68105444     0.11600
C247        C  0.36954552  0.86725129  0.68041851    -0.51900
C248        C  0.36759191  0.84910679  0.70148219     0.12200
H249        H  0.43544457  0.85710934  0.65108996     0.16700
H250        H  0.36943499  0.79897562  0.71588572     0.02400
H251        H  0.32162403  0.79012072  0.64531998     0.17000
H252        H  0.36748038  0.89260255  0.67943918     0.16800
C253        C  0.49890320  0.68920137  0.85762894     0.88600
C254        C  0.52378806  0.69268827  0.83564120    -0.51700
C255        C  0.50884874  0.69561494  0.81447743     0.11500
C256        C  0.47120903  0.69523633  0.81720413     0.22400
C257        C  0.49492218  0.72446738  0.85618187    -0.52400
C258        C  0.48044552  0.72749194  0.83500987     0.11600
C259        C  0.45808218  0.65444064  0.85218263    -0.51900
C260        C  0.44383879  0.65782243  0.83108528     0.12200
H261        H  0.54964310  0.69146077  0.83665474     0.16700
H262        H  0.45909012  0.69766024  0.80002836     0.02400
H263        H  0.50090512  0.74393366  0.87103650     0.17000
H264        H  0.44138739  0.62987871  0.86425199     0.16800
C265        C  0.51358928  0.69474105  0.65566971     0.88600
C266        C  0.47137293  0.66013157  0.65687970    -0.51700
C267        C  0.45176896  0.65909814  0.67699515     0.11500
C268        C  0.47599001  0.69224831  0.69439574     0.22400
C269        C  0.51105741  0.73069502  0.65912659    -0.52400
C270        C  0.49126570  0.72911224  0.67933625     0.11600
C271        C  0.53195154  0.69177502  0.67892594    -0.51900
C272        C  0.51205521  0.69061673  0.69917499     0.12200
H273        H  0.45771808  0.63930931  0.64254536     0.16700
H274        H  0.45979012  0.69125335  0.71081125     0.02400
H275        H  0.52281308  0.75460425  0.64636999     0.17000
H276        H  0.55830221  0.69138471  0.67935762     0.16800
C277        C  0.20202660  0.54352411  0.64847399     0.88600
C278        C  0.20947481  0.58343867  0.65534662    -0.51700
C279        C  0.22823944  0.59716095  0.67645319     0.11500
C280        C  0.23731442  0.56977425  0.68911973     0.22400
C281        C  0.24242618  0.54913594  0.64917492    -0.52400
C282        C  0.26063561  0.56280097  0.67049602     0.11600
C283        C  0.17948549  0.51693736  0.67009653    -0.51900
C284        C  0.19826398  0.53102177  0.69137460     0.12200
H285        H  0.20308764  0.60058427  0.64372286     0.16700
H286        H  0.25258241  0.58120693  0.70636579     0.02400
H287        H  0.25608442  0.54455467  0.63384370     0.17000
H288        H  0.15141609  0.49009625  0.66874169     0.16800
C289        C  0.19670396  0.52477373  0.84977503     0.88600
C290        C  0.17473612  0.50247934  0.82713624    -0.51700
C291        C  0.19266659  0.52213187  0.80627282     0.11500
C292        C  0.23020782  0.56171043  0.80993170     0.22400
C293        C  0.23793520  0.53331352  0.84601973    -0.52400
C294        C  0.25526531  0.55272226  0.82527273     0.11600
C295        C  0.20098383  0.56440799  0.84738129    -0.51900
C296        C  0.21892190  0.58381703  0.82672977     0.12200
H297        H  0.14819377  0.47402574  0.82755336     0.16700
H298        H  0.24483079  0.57770108  0.79306904     0.02400
H299        H  0.25274191  0.52628800  0.85915475     0.17000
H300        H  0.19291377  0.57708354  0.86153799     0.16800
C301        C  0.52087989  0.34191443  0.35289401     0.88600
C302        C  0.50087355  0.34225313  0.32976523    -0.51700
C303        C  0.52014639  0.34274301  0.30945493     0.11500
C304        C  0.55723753  0.34291995  0.31398411     0.22400
C305        C  0.52489105  0.30669930  0.35045903    -0.52400
C306        C  0.54412662  0.30755914  0.33013339     0.11600
C307        C  0.56254232  0.37741445  0.35055727    -0.51900
C308        C  0.58145353  0.37764625  0.33029213     0.12200
H309        H  0.47414772  0.34196757  0.32946937     0.16700
H310        H  0.57292050  0.34335332  0.29745298     0.02400
H311        H  0.51497517  0.28415379  0.36405396     0.17000
H312        H  0.57633587  0.39947018  0.36421658     0.16800
C313        C  0.51644478  0.33795385  0.15016407     0.88600
C314        C  0.55796052  0.37379641  0.15139775    -0.51700
C315        C  0.57738040  0.37440917  0.17118095     0.11500
C316        C  0.55380198  0.33977270  0.18813891     0.22400
C317        C  0.52094185  0.30307860  0.15257958    -0.52400
C318        C  0.54070961  0.30435886  0.17237387     0.11600
C319        C  0.49676480  0.33833126  0.17375224    -0.51900
C320        C  0.51662525  0.33930064  0.19358158     0.12200
H321        H  0.57127382  0.39580649  0.13738761     0.16700
H322        H  0.56993579  0.34055213  0.20426767     0.02400
H323        H  0.51100838  0.28046628  0.13926429     0.17000
H324        H  0.47002699  0.33800931  0.17468712     0.16800
C325        C  0.67628828  0.19930502  0.35032242     0.88600
C326        C  0.67370141  0.17592747  0.32799947    -0.51700
C327        C  0.67190129  0.19238224  0.30707008     0.11500
C328        C  0.67286423  0.23016176  0.31027008     0.22400
C329        C  0.71168225  0.24029016  0.34545818    -0.52400
C330        C  0.70959954  0.25633493  0.32459458     0.11600
C331        C  0.64101636  0.20333637  0.34871485    -0.51900
C332        C  0.63948855  0.21961808  0.32782610     0.12200
H333        H  0.67336194  0.14921865  0.32866534     0.16700
H334        H  0.67143081  0.24355039  0.29327190     0.02400
H335        H  0.73536066  0.25580137  0.35790066     0.17000
H336        H  0.61999264  0.19537403  0.36318901     0.16800
C337        C  0.67372399  0.19710311  0.14905565     0.88600
C338        C  0.63759742  0.19968874  0.15140397    -0.51700
C339        C  0.63603087  0.21620365  0.17216813     0.11500
C340        C  0.67004746  0.22815057  0.18887824     0.22400
C341        C  0.70830468  0.23874530  0.15271649    -0.52400
C342        C  0.70611429  0.25485176  0.17349875     0.11600
C343        C  0.67258895  0.17470672  0.17160726    -0.51900
C344        C  0.67058019  0.19120288  0.19241027     0.12200
H345        H  0.61624533  0.19096732  0.13741954     0.16700
H346        H  0.66848984  0.24160123  0.20579456     0.02400
H347        H  0.73154874  0.25452963  0.13959839     0.17000
H348        H  0.67322028  0.14851245  0.17117436     0.16800
C349        C  0.83422374  0.50154961  0.34832136     0.88600
C350        C  0.85384425  0.52657222  0.32574634    -0.51700
C351        C  0.83372932  0.50963410  0.30530106     0.11500
C352        C  0.79626043  0.46987614  0.30921889     0.22400
C353        C  0.79270753  0.49313270  0.34861096    -0.52400
C354        C  0.77309821  0.47672671  0.32808007     0.11600
C355        C  0.82907350  0.46224229  0.34271608    -0.51900
C356        C  0.80901062  0.44572098  0.32237023     0.12200
H357        H  0.88110521  0.55444010  0.32588292     0.16700
H358        H  0.77989489  0.45614695  0.29259976     0.02400
H359        H  0.77956909  0.49829122  0.36398180     0.17000
H360        H  0.83837995  0.44767414  0.35451668     0.16800
C361        C  0.82942244  0.50047515  0.14761634     0.88600
C362        C  0.82412302  0.46108577  0.15338656    -0.51700
C363        C  0.80448059  0.44477409  0.17427203     0.11500
C364        C  0.79233968  0.46926531  0.18776398     0.22400
C365        C  0.78804740  0.49234828  0.14845894    -0.52400
C366        C  0.76888621  0.47614936  0.16950502     0.11600
C367        C  0.84970538  0.52560966  0.16964161    -0.51900
C368        C  0.83006963  0.50893832  0.19064271     0.12200
H369        H  0.83290889  0.44626414  0.14131179     0.16700
H370        H  0.77633576  0.45572860  0.20482398     0.02400
H371        H  0.77457986  0.49733328  0.13339690     0.17000
H372        H  0.87711028  0.55332424  0.16875366     0.16800
In373      In  0.55792314  0.89530210  0.04564168     1.36900
C374        C  0.61006680  0.97085956  0.04510216     0.79700
O375        O  0.53262519  0.90963343  0.01483324    -0.58800
O376        O  0.49838757  0.88605037  0.04656048    -0.49700
C377        C  0.57283504  0.84812766  0.02181353     0.72300
O378        O  0.59547112  0.87124876  0.03735543    -0.44600
C379        C  0.54097453  0.86442631  0.08955215     0.77000
O380        O  0.61423722  0.94772228  0.03253703    -0.56400
O381        O  0.51861652  0.84958027  0.07207008    -0.46500
O382        O  0.58052455  0.95529320  0.05858708    -0.52800
C383        C  0.50126597  0.89915150  0.02568173     0.87200
O384        O  0.54334882  0.84960672  0.01820279    -0.54700
O385        O  0.57288557  0.89518245  0.08467134    -0.58000
In386      In  0.56030330  0.69869057  0.96409156     1.36900
C387        C  0.61066240  0.67646925  0.96290606     0.79700
O388        O  0.53469339  0.65493338  0.99445460    -0.58800
O389        O  0.49631791  0.65698346  0.97010037    -0.49700
C390        C  0.57348006  0.76220490  0.98629742     0.72300
O391        O  0.60072254  0.75849959  0.97927562    -0.44600
C392        C  0.55086678  0.70825658  0.91799956     0.77000
O393        O  0.61201982  0.69928492  0.97856368    -0.56400
O394        O  0.52804330  0.67813913  0.92995965    -0.46500
O395        O  0.58430869  0.66569253  0.94777246    -0.52800
C396        C  0.50015212  0.64124318  0.98831184     0.87200
O397        O  0.54007920  0.73408828  0.98172046    -0.54700
O398        O  0.57919748  0.73417891  0.92963836    -0.58000
In399      In  0.14436681  0.68265729  0.05005279     1.36900
C400        C  0.07316253  0.66985351  0.04872782     0.79700
O401        O  0.14190443  0.65133734  0.01626467    -0.58800
O402        O  0.15099283  0.63136034  0.04912919    -0.49700
C403        C  0.19826571  0.74796524  0.02818547     0.72300
O404        O  0.16447730  0.74034289  0.03226339    -0.44600
C405        C  0.16194706  0.68235815  0.09585696     0.77000
O406        O  0.09896739  0.69524763  0.06197644    -0.56400
O407        O  0.13263351  0.65400990  0.08639666    -0.46500
O408        O  0.08376605  0.65162698  0.03612817    -0.52800
C409        C  0.14747620  0.62747656  0.02676570     0.87200
O410        O  0.20456341  0.72274564  0.03547073    -0.54700
O411        O  0.18132787  0.71127277  0.08216563    -0.58000
In412      In  0.35292987  0.88857241  0.96808582     1.36900
C413        C  0.37088147  0.96102528  0.96300402     0.79700
O414        O  0.39072654  0.90789056  0.00073033    -0.58800
O415        O  0.40665911  0.88703183  0.97076717    -0.49700
C416        C  0.28868695  0.83833228  0.99251608     0.72300
O417        O  0.28830264  0.85812464  0.97531546    -0.44600
C418        C  0.34413744  0.85387482  0.92608168     0.77000
O419        O  0.34022303  0.93547718  0.97359912    -0.56400
O420        O  0.34805286  0.84089373  0.94552627    -0.46500
O421        O  0.39179281  0.94951078  0.95484474    -0.52800
C422        C  0.41385374  0.89954476  0.99185996     0.87200
O423        O  0.32155611  0.84485718  0.99749244    -0.54700
O424        O  0.34352962  0.88422293  0.92803804    -0.58000
In425      In  0.15670633  0.49175793  0.96393654     1.36900
C426        C  0.08024388  0.44300266  0.96352113     0.79700
O427        O  0.14322977  0.51217301  0.99803098    -0.58800
O428        O  0.16742729  0.55137318  0.96856744    -0.49700
C429        C  0.20532694  0.47534998  0.98468296     0.72300
O430        O  0.17641327  0.45040431  0.97299168    -0.44600
C431        C  0.18295977  0.51082832  0.91869012     0.77000
O432        O  0.10206093  0.43491813  0.97434181    -0.56400
O433        O  0.19877171  0.53276745  0.93625086    -0.46500
O434        O  0.09750149  0.47492306  0.95246439    -0.52800
C435        C  0.15446623  0.54530951  0.98975541     0.87200
O436        O  0.20908781  0.50784262  0.98572892    -0.54700
O437        O  0.15405627  0.47789459  0.92413976    -0.58000
In438      In  0.35198327  0.48514554  0.04470654     1.36900
C439        C  0.37229946  0.43309412  0.04378362     0.79700
O440        O  0.39228360  0.51512444  0.01320524    -0.58800
O441        O  0.39422711  0.54967343  0.04221771    -0.49700
C442        C  0.29078995  0.47336509  0.01996775     0.72300
O443        O  0.30164811  0.44976273  0.01965332    -0.44600
C444        C  0.34335557  0.49138353  0.09185471     0.77000
O445        O  0.33733433  0.42323736  0.04420728    -0.56400
O446        O  0.37561045  0.50906471  0.08108403    -0.46500
O447        O  0.39644557  0.46898340  0.04387951    -0.52800
C448        C  0.40795341  0.54840051  0.02216999     0.87200
O449        O  0.31095116  0.50262718  0.03279139    -0.54700
O450        O  0.31524602  0.46941985  0.07867502    -0.58000
In451      In  0.88266730  0.56929198  0.04118270     1.36900
C452        C  0.95819265  0.62050117  0.04566135     0.79700
O453        O  0.86810844  0.58530449  0.07680212    -0.58800
O454        O  0.86982441  0.53448175  0.07466795    -0.49700
C455        C  0.83437711  0.58259782  0.01763298     0.72300
O456        O  0.87005439  0.60031861  0.01262247    -0.44600
C457        C  0.87587390  0.51120503  0.01548980     0.77000
O458        O  0.93507294  0.63109408  0.04095776    -0.56400
O459        O  0.85519252  0.50572163  0.03378529    -0.46500
O460        O  0.94272726  0.58465263  0.04825172    -0.52800
C461        C  0.86423650  0.55627533  0.08760896     0.87200
O462        O  0.82363030  0.55900591  0.03487043    -0.54700
O463        O  0.89865667  0.54616324  0.00959717    -0.58000
In464      In  0.68239243  0.56411587  0.96048178     1.36900
C465        C  0.66392175  0.61733979  0.96122371     0.79700
O466        O  0.69133648  0.57316643  0.92013094    -0.58800
O467        O  0.68586166  0.52324226  0.93583903    -0.49700
C468        C  0.74726151  0.58033419  0.98198057     0.72300
O469        O  0.74768950  0.60043945  0.96466134    -0.44600
C470        C  0.62197081  0.50696380  0.98409551     0.77000
O471        O  0.69514815  0.62369179  0.96986598    -0.56400
O472        O  0.62614298  0.50662996  0.96173453    -0.46500
O473        O  0.64298461  0.58464292  0.95193340    -0.52800
C474        C  0.69000011  0.54197487  0.91695799     0.87200
O475        O  0.71416014  0.55286902  0.98836679    -0.54700
O476        O  0.64818879  0.53679593  0.99446589    -0.58000
In477      In  0.67997521  0.15932311  0.03715052     1.36900
C478        C  0.66246446  0.08665676  0.04044177     0.79700
O479        O  0.68340638  0.15615862  0.07738386    -0.58800
O480        O  0.67533036  0.19903374  0.06221005    -0.49700
C481        C  0.74775692  0.21328791  0.01691145     0.72300
O482        O  0.74438424  0.20489408  0.03886084    -0.44600
C483        C  0.62179721  0.15466326  0.01295471     0.77000
O484        O  0.69528914  0.11378806  0.03310302    -0.56400
O485        O  0.63219362  0.17046574  0.03307541    -0.46500
O486        O  0.63932172  0.09670904  0.04623125    -0.52800
C487        C  0.67855307  0.18377517  0.08092943     0.87200
O488        O  0.71726349  0.19323787  0.00519734    -0.54700
O489        O  0.64126789  0.14140001  0.00483736    -0.58000
In490      In  0.89039891  0.37264764  0.96061554     1.36900
C491        C  0.96360389  0.39141980  0.96381807     0.79700
O492        O  0.85595593  0.34179148  0.92764388    -0.58800
O493        O  0.90509983  0.39845932  0.92322387    -0.49700
C494        C  0.83854978  0.30715607  0.98346601     0.72300
O495        O  0.87418286  0.31936774  0.98285557    -0.44600
C496        C  0.88113171  0.42567389  0.98187517     0.77000
O497        O  0.93785195  0.36071701  0.95393936    -0.56400
O498        O  0.87942110  0.42112537  0.95954625    -0.46500
O499        O  0.95184845  0.41174119  0.97252056    -0.52800
C500        C  0.87668799  0.36966266  0.91347118     0.87200
O501        O  0.82952620  0.32785861  0.97223643    -0.54700
O502        O  0.88748227  0.40322850  0.99345796    -0.58000
In503      In  0.47283934  0.15291069  0.96102797     1.36900
C504        C  0.42196103  0.07695640  0.95927905     0.79700
O505        O  0.46210499  0.15766686  0.92172072    -0.58800
O506        O  0.51327533  0.20318583  0.93758384    -0.49700
C507        C  0.45417173  0.19678317  0.98546031     0.72300
O508        O  0.43283796  0.17427272  0.96921677    -0.44600
C509        C  0.53105796  0.15109498  0.98053502     0.77000
O510        O  0.41769380  0.09836346  0.97346178    -0.56400
O511        O  0.53160189  0.16055829  0.95901032    -0.46500
O512        O  0.45086735  0.09441887  0.94537901    -0.52800
C513        C  0.49360736  0.18984197  0.91890425     0.87200
O514        O  0.48382370  0.19582871  0.98962154    -0.54700
O515        O  0.50079803  0.14234644  0.99218459    -0.58000
In516      In  0.47530924  0.35093266  0.04077030     1.36900
C517        C  0.42473911  0.37289154  0.04284429     0.79700
O518        O  0.46565725  0.33835184  0.08051230    -0.58800
O519        O  0.51662579  0.34639658  0.06402249    -0.49700
C520        C  0.45571273  0.28495972  0.01901469     0.72300
O521        O  0.43504498  0.28615653  0.03551347    -0.44600
C522        C  0.53259657  0.41344861  0.01872206     0.77000
O523        O  0.41963836  0.34573649  0.02952416    -0.56400
O524        O  0.53394391  0.40607573  0.04044091    -0.46500
O525        O  0.45447550  0.38751864  0.05554328    -0.52800
C526        C  0.49734995  0.34040189  0.08305238     0.87200
O527        O  0.48534256  0.31715306  0.01336966    -0.54700
O528        O  0.50217037  0.38888733  0.00810690    -0.58000
C529        C  0.36333241  0.54117218  0.15324772     0.88600
C530        C  0.35484712  0.51515396  0.17542806    -0.51700
C531        C  0.35186387  0.53119789  0.19620669     0.11500
C532        C  0.35722590  0.57113001  0.19293991     0.22400
C533        C  0.33092611  0.54973680  0.15312044    -0.52400
C534        C  0.32774755  0.56520665  0.17393785     0.11600
C535        C  0.40001283  0.58011818  0.15957957    -0.51900
C536        C  0.39660916  0.59575128  0.18019261     0.12200
H537        H  0.35247079  0.48742633  0.17483054     0.16700
H538        H  0.35475495  0.58416355  0.20978950     0.02400
H539        H  0.31315341  0.54537878  0.13764916     0.17000
H540        H  0.42564938  0.59513671  0.14807685     0.16800
C541        C  0.33279251  0.52170454  0.35457194     0.88600
C542        C  0.36859843  0.56331832  0.35379712    -0.51700
C543        C  0.37263616  0.58261960  0.33300788     0.11500
C544        C  0.34054379  0.55914097  0.31491490     0.22400
C545        C  0.29857038  0.52639790  0.34943260    -0.52400
C546        C  0.30290496  0.54611418  0.32876438     0.11600
C547        C  0.33651515  0.50202163  0.33205838    -0.51900
C548        C  0.34033996  0.52184809  0.31130965     0.12200
H549        H  0.38837003  0.57669083  0.36863051     0.16700
H550        H  0.34380148  0.57529689  0.29808723     0.02400
H551        H  0.27410133  0.51681265  0.36163829     0.17000
H552        H  0.33536972  0.47489448  0.33245756     0.16800
C553        C  0.22418685  0.70406019  0.15201318     0.88600
C554        C  0.20154520  0.70208398  0.17473111    -0.51700
C555        C  0.21723925  0.69844026  0.19525256     0.11500
C556        C  0.25370880  0.69694445  0.19132215     0.22400
C557        C  0.26613263  0.73767933  0.15632625    -0.52400
C558        C  0.28143893  0.73368288  0.17685778     0.11600
C559        C  0.22624208  0.66756750  0.15293870    -0.51900
C560        C  0.24175031  0.66402359  0.17352620     0.12200
H561        H  0.17605743  0.70402346  0.17460488     0.16700
H562        H  0.26646838  0.69396702  0.20805009     0.02400
H563        H  0.28280797  0.76150908  0.14375726     0.17000
H564        H  0.21807459  0.64754023  0.13815041     0.16800
C565        C  0.20331785  0.68112626  0.35304562     0.88600
C566        C  0.20440855  0.64499665  0.34722112    -0.51700
C567        C  0.22445702  0.64845066  0.32680914     0.11500
C568        C  0.24143515  0.68735108  0.31379732     0.22400
C569        C  0.24627246  0.71442464  0.35331802    -0.52400
C570        C  0.26595073  0.71763498  0.33266374     0.11600
C571        C  0.18643654  0.68834063  0.33057951    -0.51900
C572        C  0.20660636  0.69142901  0.31007233     0.12200
H573        H  0.19200974  0.61957771  0.35879920     0.16700
H574        H  0.25778355  0.68988071  0.29710319     0.02400
H575        H  0.26005529  0.73289392  0.36864722     0.17000
H576        H  0.16070819  0.68986689  0.33080244     0.16800
C577        C  0.52979834  0.84455221  0.15772826     0.88600
C578        C  0.52144250  0.80323012  0.16019121    -0.51700
C579        C  0.50234377  0.78494528  0.18088663     0.11500
C580        C  0.49350625  0.80921820  0.19732535     0.22400
C581        C  0.49014446  0.84007101  0.16109462    -0.52400
C582        C  0.47119317  0.82130686  0.18163929     0.11600
C583        C  0.55240966  0.86552409  0.18047851    -0.51900
C584        C  0.53299849  0.84662288  0.20117848     0.12200
H585        H  0.52851711  0.78922022  0.14638123     0.16700
H586        H  0.47776126  0.79390413  0.21411761     0.02400
H587        H  0.47737098  0.84923296  0.14778957     0.17000
H588        H  0.58061759  0.89237750  0.18024858     0.16800
C589        C  0.51364811  0.83197310  0.35936654     0.88600
C590        C  0.47445625  0.82814143  0.35562825    -0.51700
C591        C  0.45693303  0.81040638  0.33483312     0.11500
C592        C  0.48016726  0.79865961  0.31937885     0.22400
C593        C  0.50473965  0.79047217  0.35697912    -0.52400
C594        C  0.48704425  0.77315940  0.33605730     0.11600
C595        C  0.53797081  0.85359716  0.33688473    -0.51900
C596        C  0.52024199  0.83600816  0.31599902     0.12200
H597        H  0.46087806  0.83681024  0.36884162     0.16700
H598        H  0.46567998  0.78428246  0.30239666     0.02400
H599        H  0.51004779  0.77555059  0.37105024     0.17000
H600        H  0.56631114  0.88028143  0.33742147     0.16800
C601        C  0.54690042  0.85940153  0.22509247    -0.16400
C602        C  0.55041947  0.86269457  0.24653543     0.07600
C603        C  0.54626750  0.85911195  0.27174725     0.09500
C604        C  0.53699135  0.85090196  0.29254385    -0.17300
C605        C  0.30718917  0.74432072  0.32985983    -0.16400
C606        C  0.34205925  0.76404331  0.32836806     0.07600
C607        C  0.38291240  0.78391280  0.32827044     0.09500
C608        C  0.41728716  0.79787036  0.33008280    -0.17300
C609        C  0.32185164  0.75860029  0.18249000    -0.16400
C610        C  0.35632592  0.77684920  0.18561515     0.07600
C611        C  0.39692712  0.79537010  0.18704618     0.09500
C612        C  0.43130244  0.80871388  0.18599354    -0.17300
C613        C  0.20249385  0.69794245  0.21889992    -0.16400
C614        C  0.19495561  0.69783508  0.23983980     0.07600
C615        C  0.19227042  0.69721843  0.26506802     0.09500
C616        C  0.19565763  0.69551301  0.28636433    -0.17300
C617        C  0.46999008  0.73243553  0.33188020    -0.16400
C618        C  0.45145368  0.69778912  0.32952323     0.07600
C619        C  0.42609753  0.65719426  0.32858777     0.09500
C620        C  0.40244255  0.62287953  0.32959469    -0.17300
C621        C  0.27769586  0.55925275  0.32266219    -0.16400
C622        C  0.26023615  0.57494619  0.31941253     0.07600
C623        C  0.24411649  0.59789285  0.31839131     0.09500
C624        C  0.23360818  0.62017325  0.32045989    -0.17300
C625        C  0.48710734  0.74461755  0.18544482    -0.16400
C626        C  0.47047144  0.71006678  0.18804341     0.07600
C627        C  0.44722094  0.66933149  0.18876875     0.09500
C628        C  0.42497136  0.63500430  0.18661927    -0.17300
C629        C  0.25238286  0.63583343  0.17635318    -0.16400
C630        C  0.26515373  0.61527136  0.17755053     0.07600
C631        C  0.28381346  0.59450590  0.17760026     0.09500
C632        C  0.30244232  0.57955224  0.17652078    -0.17300
C633        C  0.34686482  0.51426029  0.21975354    -0.16400
C634        C  0.34440035  0.50645468  0.24084009     0.07600
C635        C  0.34283868  0.50448867  0.26618221     0.09500
C636        C  0.34189243  0.50893411  0.28750353    -0.17300
C637        C  0.44693358  0.22329985  0.99770788    -0.11200
C638        C  0.44747742  0.24971350  0.00777545    -0.12700
C639        C  0.58991992  0.15200575  0.00045484    -0.11200
C640        C  0.56288925  0.15093139  0.99108663    -0.12700
C641        C  0.78298093  0.24458361  0.00609776    -0.11200
C642        C  0.80993386  0.27248073  0.99611409    -0.12700
C643        C  0.59007035  0.47515324  0.99680305    -0.11200
C644        C  0.56362743  0.44727895  0.00692847    -0.12700
C645        C  0.87500570  0.48005959  0.00297110    -0.11200
C646        C  0.87684041  0.45474331  0.99322628    -0.12700
C647        C  0.78160982  0.58706792  0.99354654    -0.11200
C648        C  0.80737730  0.58756849  0.00428419    -0.12700
C649        C  0.39997633  0.38787469  0.04292560    -0.11200
C650        C  0.38443820  0.40598866  0.04324520    -0.12700
C651        C  0.36834463  0.52619789  0.12959745    -0.14300
C652        C  0.33859690  0.49754628  0.11742655    -0.29500
H653        H  0.39668933  0.54240810  0.12089911     0.14700
H654        H  0.30977139  0.48163330  0.12544366     0.15200
C655        C  0.00381366  0.40361310  0.96437280    -0.11200
C656        C  0.03860017  0.41883016  0.96426011    -0.12700
C657        C  0.23253028  0.46823219  0.99609737    -0.11200
C658        C  0.25816824  0.46799297  0.00663127    -0.12700
C659        C  0.38241000  0.00083257  0.96102625    -0.11200
C660        C  0.39754294  0.03547365  0.95986073    -0.12700
C661        C  0.99941598  0.64634869  0.04741738    -0.11200
C662        C  0.03398832  0.66079652  0.04841980    -0.12700
C663        C  0.20827312  0.70851092  0.12880090    -0.14300
C664        C  0.17355766  0.68082478  0.12053741    -0.29500
H665        H  0.22691104  0.73393953  0.11769033     0.14700
H666        H  0.15502179  0.65493739  0.13129762     0.15200
C667        C  0.15217799  0.57394242  0.00329017    -0.11200
C668        C  0.14992151  0.59819487  0.01414723    -0.12700
C669        C  0.25435349  0.80932414  0.00515199    -0.11200
C670        C  0.22759005  0.78241041  0.01583488    -0.12700
C671        C  0.63576033  0.66194031  0.96281556    -0.11200
C672        C  0.65183529  0.64438943  0.96230875    -0.12700
C673        C  0.46745712  0.60963843  0.00083829    -0.11200
C674        C  0.43988444  0.58219147  0.01066347    -0.12700
C675        C  0.63548534  0.01217746  0.04334129    -0.11200
C676        C  0.65119482  0.04686783  0.04185493    -0.12700
C677        C  0.52913667  0.84672442  0.11356682    -0.14300
C678        C  0.54841742  0.86346828  0.13385384    -0.29500
H679        H  0.50144291  0.81931971  0.11481963     0.14700
H680        H  0.57592744  0.89106283  0.13323596     0.15200
C681        C  0.57913059  0.82114706  0.00940993    -0.11200
C682        C  0.57936131  0.79561925  0.99875966    -0.12700
C683        C  0.47096363  0.90170726  0.01490174    -0.11200
C684        C  0.44529134  0.90240167  0.00496016    -0.12700
C685        C  0.84953554  0.51640458  0.12370916    -0.14300
C686        C  0.85267187  0.54752437  0.11310876    -0.29500
H687        H  0.85862429  0.49969814  0.11380102     0.14700
H688        H  0.84373716  0.56463479  0.12263053     0.15200
C689        C  0.84382570  0.52522363  0.21401066    -0.16400
C690        C  0.85019873  0.53220635  0.23503082     0.07600
C691        C  0.85128528  0.53249449  0.26031888     0.09500
C692        C  0.84646443  0.52586804  0.28155990    -0.17300
C693        C  0.67600647  0.18046530  0.12539941    -0.14300
C694        C  0.67657270  0.19781606  0.10476796    -0.29500
H695        H  0.67713857  0.15451183  0.12515783     0.14700
H696        H  0.67489324  0.22346657  0.10538684     0.15200
C697        C  0.73273761  0.29508777  0.17888185    -0.16400
C698        C  0.75298605  0.32957210  0.18162317     0.07600
C699        C  0.77419714  0.37036703  0.18230523     0.09500
C700        C  0.78977567  0.40492810  0.18024268    -0.17300
C701        C  0.79476561  0.40604611  0.31660853    -0.16400
C702        C  0.77928501  0.37155478  0.31459105     0.07600
C703        C  0.75773501  0.33075647  0.31535155     0.09500
C704        C  0.73692868  0.29630155  0.31840197    -0.17300
C705        C  0.66956701  0.17671576  0.28359156    -0.16400
C706        C  0.66837520  0.16997177  0.26249310     0.07600
C707        C  0.66823150  0.16975428  0.23719969     0.09500
C708        C  0.66905440  0.17612275  0.21603377    -0.17300
C709        C  0.49638369  0.33717740  0.12743833    -0.14300
C710        C  0.51215740  0.33723730  0.10616409    -0.29500
H711        H  0.47012143  0.33776479  0.12834575     0.14700
H712        H  0.53876810  0.33722154  0.10571627     0.15200
C713        C  0.61806166  0.40242016  0.17410375    -0.16400
C714        C  0.65276047  0.42358535  0.17500116     0.07600
C715        C  0.69359807  0.44545323  0.17443983     0.09500
C716        C  0.72826951  0.46128429  0.17277154    -0.17300
C717        C  0.60816703  0.22692249  0.17622177    -0.16400
C718        C  0.58771913  0.23973374  0.17789226     0.07600
C719        C  0.56733310  0.25866868  0.17781094     0.09500
C720        C  0.55320121  0.27790510  0.17614353    -0.17300
C721        C  0.73251264  0.46228322  0.32567248    -0.16400
C722        C  0.69788230  0.44702366  0.32462784     0.07600
C723        C  0.65701232  0.42584987  0.32480607     0.09500
C724        C  0.62224361  0.40518769  0.32640913    -0.17300
C725        C  0.61168047  0.23042300  0.32408957    -0.16400
C726        C  0.59089665  0.24288401  0.32285250     0.07600
C727        C  0.57013971  0.26145999  0.32361101     0.09500
C728        C  0.55603857  0.28068236  0.32590320    -0.17300
C729        C  0.50723533  0.34254000  0.28552517    -0.16400
C730        C  0.50133316  0.34200904  0.26438870     0.07600
C731        C  0.50034156  0.34107844  0.23913758     0.09500
C732        C  0.50476691  0.34019277  0.21782882    -0.17300
C733        C  0.19771552  0.52421699  0.89409440    -0.14300
C734        C  0.17938791  0.50560203  0.87389845    -0.29500
H735        H  0.22459482  0.55233010  0.89250530     0.14700
H736        H  0.15220562  0.47772834  0.87483422     0.15200
C737        C  0.18320321  0.51289843  0.71458713    -0.16400
C738        C  0.17648977  0.50457526  0.73564137     0.07600
C739        C  0.17501601  0.50257536  0.76103745     0.09500
C740        C  0.17947503  0.50762362  0.78239778    -0.17300
C741        C  0.41052237  0.63234458  0.67960682    -0.16400
C742        C  0.37566169  0.61187194  0.67933457     0.07600
C743        C  0.33499598  0.59071760  0.67693757     0.09500
C744        C  0.30068834  0.57578315  0.67402611    -0.17300
C745        C  0.51251108  0.68440054  0.88164897    -0.14300
C746        C  0.54405991  0.71285740  0.89263791    -0.29500
H747        H  0.49373516  0.65738140  0.89132421     0.14700
H748        H  0.56313966  0.74033200  0.88354714     0.15200
C749        C  0.40487313  0.63029700  0.82387225    -0.16400
C750        C  0.37094456  0.60857495  0.82007121     0.07600
C751        C  0.33033506  0.58552990  0.81868928     0.09500
C752        C  0.29562761  0.56866647  0.82028437    -0.17300
C753        C  0.52382881  0.69502449  0.79104387    -0.16400
C754        C  0.52954451  0.69335248  0.76994434     0.07600
C755        C  0.52943093  0.69129726  0.74463928     0.09500
C756        C  0.52421340  0.69027439  0.72332945    -0.17300
C757        C  0.48220259  0.75780766  0.68485316    -0.16400
C758        C  0.47106107  0.77935487  0.68837496     0.07600
C759        C  0.45370299  0.80116960  0.69041924     0.09500
C760        C  0.43518328  0.81618276  0.68953370    -0.17300
C761        C  0.31162458  0.74693857  0.68536119    -0.16400
C762        C  0.28923031  0.71239678  0.68696032     0.07600
C763        C  0.26457007  0.67167620  0.68617718     0.09500
C764        C  0.24593560  0.63717504  0.68308700    -0.17300
C765        C  0.34233541  0.85086648  0.88183336    -0.14300
C766        C  0.34175402  0.83518958  0.90312128    -0.29500
H767        H  0.34271741  0.87767887  0.88111950     0.14700
H768        H  0.34179631  0.80858472  0.90366157     0.15200
C769        C  0.46792091  0.75406622  0.83166377    -0.16400
C770        C  0.45334178  0.77297958  0.83045462     0.07600
C771        C  0.43227134  0.79127619  0.83086166     0.09500
C772        C  0.41132608  0.80354089  0.83266937    -0.17300
C773        C  0.23314620  0.62440116  0.82369247    -0.16400
C774        C  0.24801508  0.65907303  0.82364617     0.07600
C775        C  0.26799440  0.69978062  0.82588342     0.09500
C776        C  0.28710597  0.73425031  0.82923186    -0.17300
C777        C  0.35141572  0.85413058  0.79183226    -0.16400
C778        C  0.35443057  0.86238410  0.77085909     0.07600
C779        C  0.35859139  0.86515550  0.74570113     0.09500
C780        C  0.36255792  0.86118526  0.72470914    -0.17300
C781        C  0.51285009  0.83638171  0.40378636    -0.14300
C782        C  0.53208007  0.85096707  0.38287377    -0.29500
H783        H  0.48416455  0.81004554  0.40376201     0.14700
H784        H  0.56043935  0.87769744  0.38265983     0.15200
C785        C  0.51921589  0.69895461  0.61146334    -0.14300
C786        C  0.53366798  0.69595337  0.63235539    -0.29500
H787        H  0.49390946  0.70124018  0.61188397     0.14700
H788        H  0.55895396  0.69367821  0.63254156     0.15200
C789        C  0.58132505  0.82082195  0.50053786    -0.11200
C790        C  0.58265049  0.79488096  0.50985319    -0.12700
C791        C  0.34736859  0.86507911  0.62426715    -0.14300
C792        C  0.37785602  0.86659809  0.63438384    -0.29500
H793        H  0.32025492  0.85285097  0.63423490     0.14700
H794        H  0.40454641  0.87819432  0.62400169     0.15200
C795        C  0.44155005  0.89099066  0.52115177    -0.11200
C796        C  0.46768308  0.89196279  0.51019258    -0.12700
C797        C  0.18273756  0.70500138  0.38801325    -0.14300
C798        C  0.18182714  0.67588131  0.37632842    -0.29500
H799        H  0.19705415  0.73373876  0.37991916     0.14700
H800        H  0.16822748  0.64770004  0.38515994     0.15200
C801        C  0.23210263  0.78129321  0.50003941    -0.11200
C802        C  0.25673551  0.80680487  0.51225850    -0.12700
C803        C  0.35686827  0.50161780  0.38930086    -0.14300
C804        C  0.32767638  0.50152120  0.37835723    -0.29500
H805        H  0.38432402  0.51273651  0.37989890     0.14700
H806        H  0.30077235  0.49111211  0.38829489     0.15200
C807        C  0.46332098  0.60501261  0.50844461    -0.11200
C808        C  0.43680814  0.57822798  0.49803784    -0.12700
C809        C  0.17806694  0.49991962  0.61224391    -0.14300
C810        C  0.18312614  0.53092132  0.62413239    -0.29500
H811        H  0.18423146  0.48012448  0.62092051     0.14700
H812        H  0.17638382  0.55001186  0.61501153     0.15200
C813        C  0.15598633  0.57630794  0.50268286    -0.11200
C814        C  0.15606707  0.60276500  0.49297629    -0.12700
C815        C  0.22837862  0.46846463  0.50558120    -0.11200
C816        C  0.25414759  0.46762739  0.49522919    -0.12700
C817        C  0.65441273  0.64711487  0.54140085    -0.11200
C818        C  0.63670565  0.66304501  0.54224962    -0.12700
C819        C  0.00426309  0.64568532  0.45594056    -0.11200
C820        C  0.03893419  0.66107127  0.45705892    -0.12700
C821        C  0.85741601  0.54818780  0.38252306    -0.14300
C822        C  0.85501615  0.51773935  0.37161157    -0.29500
H823        H  0.84712503  0.56461766  0.37365616     0.14700
H824        H  0.86508197  0.50148231  0.38099329     0.15200
C825        C  0.80549702  0.58136497  0.48720359    -0.11200
C826        C  0.78063853  0.58210334  0.49863729    -0.12700
C827        C  0.99552968  0.40038276  0.53885758    -0.11200
C828        C  0.03034437  0.41566392  0.53912017    -0.12700
C829        C  0.88328180  0.47980111  0.49210690    -0.11200
C830        C  0.88327920  0.45417573  0.50283527    -0.12700
C831        C  0.62129075  0.00940787  0.46310180    -0.11200
C832        C  0.63625114  0.04408742  0.46277293    -0.12700
C833        C  0.67792939  0.18273365  0.37423945    -0.14300
C834        C  0.68018604  0.20147893  0.39456937    -0.29500
H835        H  0.67593006  0.15515699  0.37495686     0.14700
H836        H  0.68198872  0.22895088  0.39338775     0.15200
C837        C  0.76716655  0.23714162  0.49912602    -0.11200
C838        C  0.79515271  0.26395909  0.50866281    -0.12700
C839        C  0.39837092  0.38493179  0.46579808    -0.11200
C840        C  0.38045028  0.40067179  0.46646337    -0.12700
C841        C  0.51664710  0.34171434  0.39712323    -0.14300
C842        C  0.50124298  0.34195194  0.37601133    -0.29500
H843        H  0.54229719  0.33999093  0.39725445     0.14700
H844        H  0.47557976  0.34359181  0.37546561     0.15200
C845        C  0.57240209  0.45225880  0.49527755    -0.11200
C846        C  0.59975605  0.47972363  0.50464650    -0.12700
C847        C  0.36619150  0.99646148  0.54763908    -0.11200
C848        C  0.38148088  0.03113173  0.54713976    -0.12700
C849        C  0.54668001  0.14948189  0.50516294    -0.11200
C850        C  0.57369763  0.15094331  0.49501178    -0.12700
C851        C  0.45198319  0.23173436  0.51022826    -0.11200
C852        C  0.45460396  0.25870294  0.49952919    -0.12700
C853        C  0.49148113  0.19550736  0.87461791    -0.14300
C854        C  0.50816272  0.21039248  0.89580153    -0.29500
H855        H  0.46400365  0.16788641  0.87393337     0.14700
H856        H  0.53580921  0.23793073  0.89602129     0.15200
C857        C  0.51001076  0.18618691  0.62627242    -0.14300
C858        C  0.47972739  0.18365028  0.61514612    -0.29500
H859        H  0.52605309  0.17556142  0.61703590     0.14700
H860        H  0.46292503  0.19385994  0.62380902     0.15200
C861        C  0.50083880  0.19572678  0.71648447    -0.16400
C862        C  0.49382893  0.19255642  0.73770918     0.07600
C863        C  0.49343586  0.19516703  0.76293510     0.09500
C864        C  0.49898048  0.20187987  0.78403922    -0.17300
C865        C  0.69587318  0.54457461  0.87225430    -0.14300
C866        C  0.69211558  0.52699346  0.89345831    -0.29500
H867        H  0.69864706  0.57247533  0.87148051     0.14700
H868        H  0.68946476  0.49910630  0.89360863     0.15200
C869        C  0.55892094  0.31670079  0.82463901    -0.16400
C870        C  0.57646306  0.35134347  0.82218319     0.07600
C871        C  0.60123867  0.39197196  0.82132162     0.09500
C872        C  0.62527854  0.42604639  0.82269701    -0.17300
C873        C  0.68364786  0.53325447  0.62345079    -0.14300
C874        C  0.71261925  0.56137583  0.60998016    -0.29500
H875        H  0.65468510  0.51751634  0.61603340     0.14700
H876        H  0.74205456  0.57761628  0.61657194     0.15200
C877        C  0.56898184  0.30838324  0.67367589    -0.16400
C878        C  0.58587631  0.34293619  0.67600761     0.07600
C879        C  0.60886648  0.38363067  0.67723901     0.09500
C880        C  0.63041149  0.41826348  0.67602151    -0.17300
C881        C  0.70053909  0.53572017  0.71342339    -0.16400
C882        C  0.70207397  0.54188578  0.73465705     0.07600
C883        C  0.70272007  0.54303522  0.75999619     0.09500
C884        C  0.70212833  0.53855269  0.78142333    -0.17300
C885        C  0.83438947  0.34112569  0.87845330    -0.14300
C886        C  0.86751950  0.36994191  0.88789531    -0.29500
H887        H  0.81587844  0.31534383  0.88929164     0.14700
H888        H  0.88601090  0.39615935  0.87743533     0.15200
C889        C  0.74862800  0.47738102  0.82718399    -0.16400
C890        C  0.76465338  0.45975638  0.82710190     0.07600
C891        C  0.78012990  0.43612043  0.82836372     0.09500
C892        C  0.79064831  0.41377162  0.83035253    -0.17300
C893        C  0.72015314  0.29047632  0.82560580    -0.16400
C894        C  0.68549982  0.27378999  0.82350141     0.07600
C895        C  0.64521664  0.25827644  0.82321755     0.09500
C896        C  0.61152472  0.24787733  0.82483802    -0.17300
C897        C  0.85083645  0.35588145  0.62799877    -0.14300
C898        C  0.83514831  0.35680764  0.60707625    -0.29500
H899        H  0.87714515  0.35539511  0.62825015     0.14700
H900        H  0.80903714  0.35772065  0.60747188     0.15200
C901        C  0.80187593  0.42471814  0.67394302    -0.16400
C902        C  0.79033607  0.44628981  0.67293994     0.07600
C903        C  0.77295565  0.46792936  0.67016264     0.09500
C904        C  0.75424920  0.48250322  0.66762996    -0.17300
C905        C  0.62129541  0.24303231  0.68091686    -0.16400
C906        C  0.65581556  0.25801871  0.68256500     0.07600
C907        C  0.69667043  0.27906696  0.68173355     0.09500
C908        C  0.73131933  0.29944946  0.67912665    -0.17300
C909        C  0.84431539  0.35873355  0.71922450    -0.16400
C910        C  0.84781225  0.35713474  0.74062023     0.07600
C911        C  0.84607219  0.35508601  0.76603178     0.09500
C912        C  0.83955896  0.35336201  0.78735224    -0.17300
loop_ 
_geom_bond_atom_site_label_1 
_geom_bond_atom_site_label_2 
_geom_bond_distance 
_geom_bond_site_symmetry_2 
_ccdc_geom_bond_type 
C1            C2   1.545       .  S
C1            C7   1.536       .  S
C1            C5   1.540       .  S
C1          C897   1.516       .  S
C2            H9   1.085       .  S
C2            C3   1.373       .  D
C3            C4   1.538       .  S
C3          C909   1.448       .  S
C4            C8   1.534       .  S
C4            C6   1.532       .  S
C4           H10   1.112       .  S
C5           H11   1.086       .  S
C5            C6   1.361       .  D
C6          C908   1.440       .  S
C7           H12   1.087       .  S
C7            C8   1.357       .  D
C8          C901   1.439       .  S
C13          C14   1.541       .  S
C13          C19   1.545       .  S
C13          C17   1.540       .  S
C13         C885   1.518       .  S
C14          H21   1.086       .  S
C14          C15   1.361       .  D
C15          C16   1.532       .  S
C15         C892   1.442       .  S
C16          C20   1.536       .  S
C16          C18   1.531       .  S
C16          H22   1.112       .  S
C17          H23   1.087       .  S
C17          C18   1.362       .  D
C18         C893   1.441       .  S
C19          H24   1.085       .  S
C19          C20   1.372       .  D
C20         C912   1.449       .  S
C25          C26   1.541       .  S
C25          C31   1.538       .  S
C25          C29   1.542       .  S
C25         C873   1.511       .  S
C26          H33   1.086       .  S
C26          C27   1.370       .  D
C27          C28   1.536       .  S
C27         C881   1.444       .  S
C28          C32   1.530       .  S
C28          C30   1.531       .  S
C28          H34   1.112       .  S
C29          H35   1.086       .  S
C29          C30   1.363       .  D
C30         C904   1.439       .  S
C31          H36   1.087       .  S
C31          C32   1.356       .  D
C32         C880   1.438       .  S
C37          C38   1.539       .  S
C37          C43   1.543       .  S
C37          C41   1.539       .  S
C37         C865   1.515       .  S
C38          H45   1.087       .  S
C38          C39   1.359       .  D
C39          C40   1.531       .  S
C39         C872   1.438       .  S
C40          C44   1.537       .  S
C40          C42   1.533       .  S
C40          H46   1.112       .  S
C41          H47   1.087       .  S
C41          C42   1.360       .  D
C42         C889   1.442       .  S
C43          H48   1.086       .  S
C43          C44   1.371       .  D
C44         C884   1.444       .  S
C49          C50   1.541       .  S
C49          C55   1.540       .  S
C49          C53   1.541       .  S
C49         C857   1.510       .  S
C50          H57   1.086       .  S
C50          C51   1.369       .  D
C51          C52   1.535       .  S
C51         C861   1.442       .  S
C52          C56   1.529       .  S
C52          C54   1.529       .  S
C52          H58   1.112       .  S
C53          H59   1.086       .  S
C53          C54   1.364       .  D
C54         C877   1.438       .  S
C55          H60   1.087       .  S
C55          C56   1.358       .  D
C56         C905   1.439       .  S
C61          C62   1.539       .  S
C61          C67   1.541       .  S
C61          C65   1.540       .  S
C61         C853   1.514       .  S
C62          H69   1.087       .  S
C62          C63   1.360       .  D
C63          C64   1.533       .  S
C63         C896   1.442       .  S
C64          C68   1.536       .  S
C64          C66   1.533       .  S
C64          H70   1.112       .  S
C65          H71   1.086       .  S
C65          C66   1.363       .  D
C66         C869   1.439       .  S
C67          H72   1.086       .  S
C67          C68   1.368       .  D
C68         C864   1.442       .  S
In73         O75   2.265       .  S
In73         O76   2.245       .  S
In73         O84   2.237       .  S
In73         O78   2.261       .  S
In73         O80   2.237       .  S
In73         O81   2.220       .  S
In73         O82   2.265       .  S
In73         O85   2.276       .  S
C74          O80   1.256       .  A
C74          O82   1.259       .  A
C74         C848   1.434       .  S
O75          C83   1.260       .  A
O76          C83   1.257       .  A
C77          O84   1.257       .  A
C77          O78   1.260       .  A
C77         C851   1.435       .  S
C79          O81   1.259       .  A
C79          O85   1.262       .  A
C79         C858   1.479       .  S
C83         C849   1.438       .  S
In86         O88   2.252       .  S
In86         O89   2.248       .  S
In86         O97   2.237       .  S
In86         O91   2.258       .  S
In86         O93   2.269       .  S
In86         O94   2.235       .  S
In86         O95   2.241       .  S
In86         O98   2.270       .  S
C87          O93   1.259       .  A
C87          O95   1.257       .  A
C87         C839   1.437       .  S
O88          C96   1.260       .  A
O89          C96   1.259       .  A
C90          O97   1.258       .  A
C90          O91   1.261       .  A
C90         C852   1.435       .  S
C92          O94   1.256       .  A
C92          O98   1.261       .  A
C92         C841   1.470       .  S
C96         C845   1.436       .  S
In99        O101   2.251       .  S
In99        O102   2.253       .  S
In99        O110   2.263       .  S
In99        O104   2.270       .  S
In99        O106   2.268       .  S
In99        O107   2.237       .  S
In99        O108   2.241       .  S
In99        O111   2.267       .  S
C100        O106   1.260       .  A
C100        O108   1.256       .  A
C100        C832   1.437       .  S
O101        C109   1.261       .  A
O102        C109   1.260       .  A
C103        O110   1.257       .  A
C103        O104   1.259       .  A
C103        C837   1.444       .  S
C105        O107   1.259       .  A
C105        O111   1.261       .  A
C105        C834   1.472       .  S
C109        C850   1.439       .  S
In112       O114   2.251       .  S
In112       O115   2.248       .  S
In112       O123   2.253       .  S
In112       O117   2.276       .  S
In112       O119   2.273       .  S
In112       O120   2.227       .  S
In112       O121   2.246       .  S
In112       O124   2.271       .  S
C113        O119   1.260       .  A
C113        O121   1.256       .  A
C113        C827   1.441       .  S
O114        C122   1.260       .  A
O115        C122   1.259       .  A
C116        O123   1.256       .  A
C116        O117   1.259       .  A
C116        C838   1.444       .  S
C118        O120   1.259       .  A
C118        O124   1.262       .  A
C118        C898   1.470       .  S
C122        C830   1.436       .  S
In125       O127   2.252       .  S
In125       O128   2.250       .  S
In125       O136   2.246       .  S
In125       O130   2.259       .  S
In125       O132   2.261       .  S
In125       O133   2.226       .  S
In125       O134   2.240       .  S
In125       O137   2.266       .  S
C126        O132   1.259       .  A
C126        O134   1.256       .  A
C126        C819   1.435   1_655  S
O127        C135   1.258       .  A
O128        C135   1.258       .  A
C129        O136   1.258       .  A
C129        O130   1.260       .  A
C129        C825   1.438       .  S
C131        O133   1.259       .  A
C131        O137   1.261       .  A
C131        C821   1.475       .  S
C135        C829   1.436       .  S
In138       O140   2.254       .  S
In138       O141   2.245       .  S
In138       O149   2.242       .  S
In138       O143   2.262       .  S
In138       O145   2.265       .  S
In138       O146   2.224       .  S
In138       O147   2.233       .  S
In138       O150   2.278       .  S
C139        O145   1.261       .  A
C139        O147   1.256       .  A
C139        C817   1.435       .  S
O140        C148   1.260       .  A
O141        C148   1.258       .  A
C142        O149   1.258       .  A
C142        O143   1.261       .  A
C142        C826   1.438       .  S
C144        O146   1.257       .  A
C144        O150   1.260       .  A
C144        C874   1.478       .  S
C148        C846   1.436       .  S
In151       O153   2.280       .  S
In151       O154   2.244       .  S
In151       O162   2.256       .  S
In151       O156   2.277       .  S
In151       O158   2.270       .  S
In151       O159   2.249       .  S
In151       O160   2.247       .  S
In151       O163   2.259       .  S
C152        O158   1.260       .  A
C152        O160   1.257       .  A
C152        C828   1.441       .  S
O153        C161   1.262       .  A
O154        C161   1.259       .  A
C155        O162   1.258       .  A
C155        O156   1.260       .  A
C155        C815   1.446       .  S
C157        O159   1.258       .  A
C157        O163   1.260       .  A
C157        C813   1.438       .  S
C161        C809   1.485       .  S
In164       O166   2.250       .  S
In164       O167   2.262       .  S
In164       O175   2.248       .  S
In164       O169   2.272       .  S
In164       O171   2.272       .  S
In164       O172   2.256       .  S
In164       O173   2.234       .  S
In164       O176   2.248       .  S
C165        O171   1.261       .  A
C165        O173   1.255       .  A
C165        C840   1.437       .  S
O166        C174   1.260       .  A
O167        C174   1.259       .  A
C168        O175   1.258       .  A
C168        O169   1.262       .  A
C168        C816   1.445       .  S
C170        O172   1.260       .  A
C170        O176   1.259       .  A
C170        C808   1.437       .  S
C174        C803   1.478       .  S
In177       O179   2.266       .  S
In177       O180   2.231       .  S
In177       O188   2.252       .  S
In177       O182   2.255       .  S
In177       O184   2.268       .  S
In177       O185   2.253       .  S
In177       O186   2.236       .  S
In177       O189   2.256       .  S
C178        O184   1.259       .  A
C178        O186   1.256       .  A
C178        C820   1.435       .  S
O179        C187   1.260       .  A
O180        C187   1.259       .  A
C181        O188   1.259       .  A
C181        O182   1.259       .  A
C181        C801   1.440       .  S
C183        O185   1.258       .  A
C183        O189   1.260       .  A
C183        C814   1.439       .  S
C187        C797   1.476       .  S
In190       O192   2.259       .  S
In190       O193   2.248       .  S
In190       O201   2.256       .  S
In190       O195   2.265       .  S
In190       O197   2.238       .  S
In190       O198   2.255       .  S
In190       O199   2.258       .  S
In190       O202   2.251       .  S
C191        O197   1.258       .  A
C191        O199   1.260       .  A
C191        C847   1.434       .  S
O192        C200   1.261       .  A
O193        C200   1.260       .  A
C194        O201   1.257       .  A
C194        O195   1.258       .  A
C194        C802   1.440       .  S
C196        O198   1.259       .  A
C196        O202   1.258       .  A
C196        C795   1.436       .  S
C200        C791   1.477       .  S
In203       O205   2.276       .  S
In203       O206   2.228       .  S
In203       O214   2.250       .  S
In203       O208   2.266       .  S
In203       O210   2.266       .  S
In203       O211   2.256       .  S
In203       O212   2.236       .  S
In203       O215   2.252       .  S
C204        O210   1.260       .  A
C204        O212   1.257       .  A
C204        C818   1.436       .  S
O205        C213   1.262       .  A
O206        C213   1.259       .  A
C207        O214   1.256       .  A
C207        O208   1.259       .  A
C207        C790   1.439       .  S
C209        O211   1.258       .  A
C209        O215   1.258       .  A
C209        C807   1.437       .  S
C213        C785   1.473       .  S
In216       O218   2.263       .  S
In216       O219   2.241       .  S
In216       O227   2.240       .  S
In216       O221   2.272       .  S
In216       O223   2.260       .  S
In216       O224   2.243       .  S
In216       O225   2.243       .  S
In216       O228   2.255       .  S
C217        O223   1.260       .  A
C217        O225   1.258       .  A
C217        C831   1.438   1_565  S
O218        C226   1.261       .  A
O219        C226   1.258       .  A
C220        O227   1.256       .  A
C220        O221   1.260       .  A
C220        C789   1.439       .  S
C222        O224   1.260       .  A
C222        O228   1.261       .  A
C222        C796   1.437       .  S
C226        C781   1.473       .  S
C229        C230   1.538       .  S
C229        C235   1.540       .  S
C229        C233   1.541       .  S
C229        C765   1.511       .  S
C230        H237   1.087       .  S
C230        C231   1.364       .  D
C231        C232   1.536       .  S
C231        C777   1.439       .  S
C232        C236   1.532       .  S
C232        C234   1.533       .  S
C232        H238   1.112       .  S
C233        H239   1.086       .  S
C233        C234   1.364       .  D
C234        C776   1.444       .  S
C235        H240   1.086       .  S
C235        C236   1.362       .  D
C236        C772   1.441       .  S
C241        C242   1.538       .  S
C241        C247   1.539       .  S
C241        C245   1.540       .  S
C241        C792   1.513       .  S
C242        H249   1.087       .  S
C242        C243   1.361       .  D
C243        C244   1.533       .  S
C243        C760   1.440       .  S
C244        C248   1.537       .  S
C244        C246   1.531       .  S
C244        H250   1.112       .  S
C245        H251   1.086       .  S
C245        C246   1.361       .  D
C246        C761   1.442       .  S
C247        H252   1.086       .  S
C247        C248   1.368       .  D
C248        C780   1.440       .  S
C253        C254   1.542       .  S
C253        C259   1.539       .  S
C253        C257   1.538       .  S
C253        C745   1.509       .  S
C254        H261   1.086       .  S
C254        C255   1.370       .  D
C255        C256   1.535       .  S
C255        C753   1.444       .  S
C256        C260   1.528       .  S
C256        C258   1.534       .  S
C256        H262   1.112       .  S
C257        H263   1.086       .  S
C257        C258   1.362       .  D
C258        C769   1.441       .  S
C259        H264   1.087       .  S
C259        C260   1.358       .  D
C260        C749   1.435       .  S
C265        C266   1.538       .  S
C265        C271   1.543       .  S
C265        C269   1.541       .  S
C265        C786   1.517       .  S
C266        H273   1.087       .  S
C266        C267   1.359       .  D
C267        C268   1.533       .  S
C267        C741   1.441       .  S
C268        C272   1.536       .  S
C268        C270   1.531       .  S
C268        H274   1.112       .  S
C269        H275   1.086       .  S
C269        C270   1.362       .  D
C270        C757   1.440       .  S
C271        H276   1.086       .  S
C271        C272   1.371       .  D
C272        C756   1.445       .  S
C277        C278   1.542       .  S
C277        C283   1.544       .  S
C277        C281   1.541       .  S
C277        C810   1.519       .  S
C278        H285   1.086       .  S
C278        C279   1.361       .  D
C279        C280   1.530       .  S
C279        C764   1.442       .  S
C280        C284   1.536       .  S
C280        C282   1.530       .  S
C280        H286   1.112       .  S
C281        H287   1.087       .  S
C281        C282   1.364       .  D
C282        C744   1.441       .  S
C283        H288   1.086       .  S
C283        C284   1.371       .  D
C284        C737   1.448       .  S
C289        C290   1.545       .  S
C289        C295   1.540       .  S
C289        C293   1.538       .  S
C289        C734   1.519       .  S
C290        H297   1.085       .  S
C290        C291   1.373       .  D
C291        C292   1.537       .  S
C291        C740   1.448       .  S
C292        C296   1.533       .  S
C292        C294   1.529       .  S
C292        H298   1.112       .  S
C293        H299   1.087       .  S
C293        C294   1.359       .  D
C294        C752   1.435       .  S
C295        H300   1.087       .  S
C295        C296   1.360       .  D
C296        C773   1.444       .  S
C301        C302   1.540       .  S
C301        C307   1.539       .  S
C301        C305   1.541       .  S
C301        C842   1.512       .  S
C302        H309   1.086       .  S
C302        C303   1.367       .  D
C303        C304   1.535       .  S
C303        C729   1.440       .  S
C304        C308   1.531       .  S
C304        C306   1.531       .  S
C304        H310   1.112       .  S
C305        H311   1.086       .  S
C305        C306   1.362       .  D
C306        C728   1.440       .  S
C307        H312   1.087       .  S
C307        C308   1.360       .  D
C308        C724   1.440       .  S
C313        C314   1.540       .  S
C313        C319   1.539       .  S
C313        C317   1.539       .  S
C313        C709   1.509       .  S
C314        H321   1.087       .  S
C314        C315   1.359       .  D
C315        C316   1.531       .  S
C315        C713   1.438       .  S
C316        C320   1.536       .  S
C316        C318   1.531       .  S
C316        H322   1.112       .  S
C317        H323   1.086       .  S
C317        C318   1.360       .  D
C318        C720   1.438       .  S
C319        H324   1.086       .  S
C319        C320   1.368       .  D
C320        C732   1.440       .  S
C325        C326   1.542       .  S
C325        C331   1.539       .  S
C325        C329   1.539       .  S
C325        C833   1.514       .  S
C326        H333   1.086       .  S
C326        C327   1.369       .  D
C327        C328   1.536       .  S
C327        C705   1.442       .  S
C328        C332   1.531       .  S
C328        C330   1.532       .  S
C328        H334   1.112       .  S
C329        H335   1.086       .  S
C329        C330   1.361       .  D
C330        C704   1.440       .  S
C331        H336   1.086       .  S
C331        C332   1.360       .  D
C332        C725   1.440       .  S
C337        C338   1.539       .  S
C337        C343   1.541       .  S
C337        C341   1.539       .  S
C337        C693   1.511       .  S
C338        H345   1.086       .  S
C338        C339   1.361       .  D
C339        C340   1.531       .  S
C339        C717   1.438       .  S
C340        C344   1.535       .  S
C340        C342   1.531       .  S
C340        H346   1.112       .  S
C341        H347   1.086       .  S
C341        C342   1.361       .  D
C342        C697   1.440       .  S
C343        H348   1.086       .  S
C343        C344   1.368       .  D
C344        C708   1.441       .  S
C349        C350   1.540       .  S
C349        C355   1.539       .  S
C349        C353   1.539       .  S
C349        C822   1.509       .  S
C350        H357   1.086       .  S
C350        C351   1.368       .  D
C351        C352   1.536       .  S
C351        C692   1.442       .  S
C352        C356   1.531       .  S
C352        C354   1.532       .  S
C352        H358   1.112       .  S
C353        H359   1.087       .  S
C353        C354   1.361       .  D
C354        C721   1.440       .  S
C355        H360   1.086       .  S
C355        C356   1.360       .  D
C356        C701   1.439       .  S
C361        C362   1.539       .  S
C361        C367   1.540       .  S
C361        C365   1.538       .  S
C361        C685   1.510       .  S
C362        H369   1.086       .  S
C362        C363   1.360       .  D
C363        C364   1.531       .  S
C363        C700   1.440       .  S
C364        C368   1.537       .  S
C364        C366   1.532       .  S
C364        H370   1.112       .  S
C365        H371   1.087       .  S
C365        C366   1.361       .  D
C366        C716   1.438       .  S
C367        H372   1.086       .  S
C367        C368   1.368       .  D
C368        C689   1.442       .  S
In373       O375   2.248       .  S
In373       O376   2.252       .  S
In373       O384   2.244       .  S
In373       O378   2.267       .  S
In373       O380   2.258       .  S
In373       O381   2.229       .  S
In373       O382   2.234       .  S
In373       O385   2.270       .  S
C374        O380   1.261       .  A
C374        O382   1.258       .  A
C374        C675   1.436   1_565  S
O375        C383   1.259       .  A
O376        C383   1.259       .  A
C377        O384   1.257       .  A
C377        O378   1.260       .  A
C377        C681   1.438       .  S
C379        O381   1.258       .  A
C379        O385   1.261       .  A
C379        C677   1.470       .  S
C383        C683   1.435       .  S
In386       O388   2.261       .  S
In386       O389   2.249       .  S
In386       O397   2.240       .  S
In386       O391   2.268       .  S
In386       O393   2.258       .  S
In386       O394   2.225       .  S
In386       O395   2.240       .  S
In386       O398   2.271       .  S
C387        O393   1.260       .  A
C387        O395   1.257       .  A
C387        C671   1.434       .  S
O388        C396   1.260       .  A
O389        C396   1.257       .  A
C390        O397   1.256       .  A
C390        O391   1.260       .  A
C390        C682   1.437       .  S
C392        O394   1.259       .  A
C392        O398   1.261       .  A
C392        C746   1.477       .  S
C396        C673   1.439   1_556  S
In399       O401   2.255       .  S
In399       O402   2.256       .  S
In399       O410   2.243       .  S
In399       O404   2.263       .  S
In399       O406   2.268       .  S
In399       O407   2.255       .  S
In399       O408   2.242       .  S
In399       O411   2.245       .  S
C400        O406   1.259       .  A
C400        O408   1.257       .  A
C400        C662   1.437       .  S
O401        C409   1.260       .  A
O402        C409   1.259       .  A
C403        O410   1.257       .  A
C403        O404   1.259       .  A
C403        C670   1.437       .  S
C405        O407   1.260       .  A
C405        O411   1.261       .  A
C405        C664   1.474       .  S
C409        C668   1.439       .  S
In412       O414   2.256   1_556  S
In412       O415   2.236       .  S
In412       O423   2.240       .  S
In412       O417   2.266       .  S
In412       O419   2.261       .  S
In412       O420   2.243       .  S
In412       O421   2.237       .  S
In412       O424   2.264       .  S
C413        O419   1.261       .  A
C413        O421   1.258       .  A
C413        C659   1.436   1_565  S
O414        C422   1.261   1_554  A
O415        C422   1.258       .  A
C416        O423   1.256       .  A
C416        O417   1.260       .  A
C416        C669   1.437   1_556  S
C418        O420   1.256       .  A
C418        O424   1.260       .  A
C418        C766   1.471       .  S
C422        C684   1.435   1_556  S
In425       O427   2.258       .  S
In425       O428   2.251       .  S
In425       O436   2.246       .  S
In425       O430   2.287       .  S
In425       O432   2.265       .  S
In425       O433   2.235       .  S
In425       O434   2.233       .  S
In425       O437   2.283       .  S
C426        O432   1.263       .  A
C426        O434   1.258       .  A
C426        C656   1.439       .  S
O427        C435   1.260       .  A
O428        C435   1.259       .  A
C429        O436   1.255       .  A
C429        O430   1.261       .  A
C429        C657   1.445       .  S
C431        O433   1.257       .  A
C431        O437   1.260       .  A
C431        C733   1.474       .  S
C435        C667   1.439   1_556  S
In438       O440   2.252       .  S
In438       O441   2.253       .  S
In438       O449   2.252       .  S
In438       O443   2.272       .  S
In438       O445   2.269       .  S
In438       O446   2.248       .  S
In438       O447   2.241       .  S
In438       O450   2.271       .  S
C439        O445   1.259       .  A
C439        O447   1.256       .  A
C439        C650   1.437       .  S
O440        C448   1.261       .  A
O441        C448   1.260       .  A
C442        O449   1.259       .  A
C442        O443   1.260       .  A
C442        C658   1.445       .  S
C444        O446   1.257       .  A
C444        O450   1.258       .  A
C444        C652   1.479       .  S
C448        C674   1.439       .  S
In451       O453   2.265       .  S
In451       O454   2.228       .  S
In451       O462   2.247       .  S
In451       O456   2.264       .  S
In451       O458   2.275       .  S
In451       O459   2.254       .  S
In451       O460   2.223       .  S
In451       O463   2.253       .  S
C452        O458   1.262       .  A
C452        O460   1.255       .  A
C452        C661   1.435       .  S
O453        C461   1.262       .  A
O454        C461   1.259       .  A
C455        O462   1.258       .  A
C455        O456   1.260       .  A
C455        C648   1.439       .  S
C457        O459   1.259       .  A
C457        O463   1.259       .  A
C457        C645   1.438       .  S
C461        C686   1.476       .  S
In464       O466   2.275       .  S
In464       O467   2.229       .  S
In464       O475   2.236       .  S
In464       O469   2.269       .  S
In464       O471   2.266       .  S
In464       O472   2.241       .  S
In464       O473   2.233       .  S
In464       O476   2.249       .  S
C465        O471   1.260       .  A
C465        O473   1.256       .  A
C465        C672   1.434       .  S
O466        C474   1.260       .  A
O467        C474   1.257       .  A
C468        O475   1.256       .  A
C468        O469   1.262       .  A
C468        C647   1.438       .  S
C470        O472   1.259       .  A
C470        O476   1.260       .  A
C470        C643   1.433       .  S
C474        C866   1.470       .  S
In477       O479   2.259       .  S
In477       O480   2.228       .  S
In477       O488   2.256       .  S
In477       O482   2.271       .  S
In477       O484   2.271       .  S
In477       O485   2.243       .  S
In477       O486   2.235       .  S
In477       O489   2.262       .  S
C478        O484   1.261       .  A
C478        O486   1.256       .  A
C478        C676   1.436       .  S
O479        C487   1.263       .  A
O480        C487   1.260       .  A
C481        O488   1.256       .  A
C481        O482   1.258       .  A
C481        C641   1.441       .  S
C483        O485   1.257       .  A
C483        O489   1.260       .  A
C483        C639   1.436       .  S
C487        C694   1.469       .  S
In490       O492   2.264       .  S
In490       O493   2.262       .  S
In490       O501   2.245       .  S
In490       O495   2.270       .  S
In490       O497   2.266       .  S
In490       O498   2.256       .  S
In490       O499   2.246       .  S
In490       O502   2.259       .  S
C491        O497   1.260       .  A
C491        O499   1.258       .  A
C491        C655   1.439   1_655  S
O492        C500   1.261       .  A
O493        C500   1.258       .  A
C494        O501   1.258       .  A
C494        O495   1.261       .  A
C494        C642   1.441       .  S
C496        O498   1.258       .  A
C496        O502   1.259       .  A
C496        C646   1.439       .  S
C500        C886   1.481       .  S
In503       O505   2.270       .  S
In503       O506   2.230       .  S
In503       O514   2.239       .  S
In503       O508   2.271       .  S
In503       O510   2.260       .  S
In503       O511   2.250       .  S
In503       O512   2.240       .  S
In503       O515   2.255       .  S
C504        O510   1.260       .  A
C504        O512   1.257       .  A
C504        C660   1.436       .  S
O505        C513   1.262       .  A
O506        C513   1.258       .  A
C507        O514   1.257       .  A
C507        O508   1.261       .  A
C507        C637   1.440       .  S
C509        O511   1.258       .  A
C509        O515   1.260       .  A
C509        C640   1.437       .  S
C513        C854   1.472       .  S
In516       O518   2.258       .  S
In516       O519   2.225       .  S
In516       O527   2.240       .  S
In516       O521   2.271       .  S
In516       O523   2.264       .  S
In516       O524   2.244       .  S
In516       O525   2.236       .  S
In516       O528   2.249       .  S
C517        O523   1.261       .  A
C517        O525   1.256       .  A
C517        C649   1.436       .  S
O518        C526   1.262       .  A
O519        C526   1.258       .  A
C520        O527   1.257       .  A
C520        O521   1.261       .  A
C520        C638   1.440       .  S
C522        O524   1.257       .  A
C522        O528   1.260       .  A
C522        C644   1.433       .  S
C526        C710   1.465       .  S
C529        C530   1.541       .  S
C529        C535   1.538       .  S
C529        C533   1.540       .  S
C529        C651   1.514       .  S
C530        H537   1.086       .  S
C530        C531   1.370       .  D
C531        C532   1.537       .  S
C531        C633   1.445       .  S
C532        C536   1.531       .  S
C532        C534   1.533       .  S
C532        H538   1.112       .  S
C533        H539   1.087       .  S
C533        C534   1.362       .  D
C534        C632   1.443       .  S
C535        H540   1.087       .  S
C535        C536   1.359       .  D
C536        C628   1.438       .  S
C541        C542   1.539       .  S
C541        C547   1.543       .  S
C541        C545   1.540       .  S
C541        C804   1.514       .  S
C542        H549   1.087       .  S
C542        C543   1.360       .  D
C543        C544   1.532       .  S
C543        C620   1.441       .  S
C544        C548   1.535       .  S
C544        C546   1.530       .  S
C544        H550   1.112       .  S
C545        H551   1.087       .  S
C545        C546   1.361       .  D
C546        C621   1.437       .  S
C547        H552   1.085       .  S
C547        C548   1.371       .  D
C548        C636   1.444       .  S
C553        C554   1.537       .  S
C553        C559   1.540       .  S
C553        C557   1.540       .  S
C553        C663   1.510       .  S
C554        H561   1.086       .  S
C554        C555   1.365       .  D
C555        C556   1.537       .  S
C555        C613   1.440       .  S
C556        C560   1.533       .  S
C556        C558   1.531       .  S
C556        H562   1.112       .  S
C557        H563   1.087       .  S
C557        C558   1.362       .  D
C558        C609   1.440       .  S
C559        H564   1.086       .  S
C559        C560   1.363       .  D
C560        C629   1.442       .  S
C565        C566   1.538       .  S
C565        C571   1.540       .  S
C565        C569   1.541       .  S
C565        C798   1.509       .  S
C566        H573   1.087       .  S
C566        C567   1.358       .  D
C567        C568   1.530       .  S
C567        C624   1.437       .  S
C568        C572   1.535       .  S
C568        C570   1.532       .  S
C568        H574   1.112       .  S
C569        H575   1.085       .  S
C569        C570   1.363       .  D
C570        C605   1.441       .  S
C571        H576   1.086       .  S
C571        C572   1.368       .  D
C572        C616   1.439       .  S
C577        C578   1.540       .  S
C577        C583   1.544       .  S
C577        C581   1.539       .  S
C577        C678   1.515       .  S
C578        H585   1.087       .  S
C578        C579   1.361       .  D
C579        C580   1.529       .  S
C579        C625   1.438       .  S
C580        C584   1.535       .  S
C580        C582   1.530       .  S
C580        H586   1.112       .  S
C581        H587   1.087       .  S
C581        C582   1.358       .  D
C582        C612   1.439       .  S
C583        H588   1.085       .  S
C583        C584   1.371       .  D
C584        C601   1.442       .  S
C589        C590   1.540       .  S
C589        C595   1.540       .  S
C589        C593   1.540       .  S
C589        C782   1.514       .  S
C590        H597   1.086       .  S
C590        C591   1.361       .  D
C591        C592   1.532       .  S
C591        C608   1.441       .  S
C592        C596   1.537       .  S
C592        C594   1.533       .  S
C592        H598   1.112       .  S
C593        H599   1.086       .  S
C593        C594   1.364       .  D
C594        C617   1.441       .  S
C595        H600   1.086       .  S
C595        C596   1.366       .  D
C596        C604   1.443       .  S
C601        C602   1.206       .  T
C602        C603   1.413       .  S
C603        C604   1.207       .  T
C605        C606   1.205       .  T
C606        C607   1.412       .  S
C607        C608   1.205       .  T
C609        C610   1.205       .  T
C610        C611   1.410       .  S
C611        C612   1.204       .  T
C613        C614   1.205       .  T
C614        C615   1.410       .  S
C615        C616   1.204       .  T
C617        C618   1.205       .  T
C618        C619   1.411       .  S
C619        C620   1.205       .  T
C621        C622   1.203       .  T
C622        C623   1.407       .  S
C623        C624   1.203       .  T
C625        C626   1.203       .  T
C626        C627   1.408       .  S
C627        C628   1.203       .  T
C629        C630   1.206       .  T
C630        C631   1.413       .  S
C631        C632   1.206       .  T
C633        C634   1.208       .  T
C634        C635   1.415       .  S
C635        C636   1.208       .  T
C637        C638   1.209   1_556  T
C639        C640   1.207   1_554  T
C641        C642   1.209   1_554  T
C643        C644   1.204   1_556  T
C645        C646   1.208   1_554  T
C647        C648   1.208   1_556  T
C649        C650   1.207       .  T
C651        H653   1.086       .  S
C651        C652   1.345       .  D
C652        H654   1.085       .  S
C655        C656   1.208       .  T
C657        C658   1.211   1_556  T
C659        C660   1.206       .  T
C661        C662   1.206   1_655  T
C663        H665   1.088       .  S
C663        C664   1.343       .  D
C664        H666   1.088       .  S
C667        C668   1.208       .  T
C669        C670   1.207       .  T
C671        C672   1.205       .  T
C673        C674   1.208       .  T
C675        C676   1.206       .  T
C677        H679   1.087       .  S
C677        C678   1.348       .  D
C678        H680   1.086       .  S
C681        C682   1.207   1_554  T
C683        C684   1.206       .  T
C685        H687   1.086       .  S
C685        C686   1.344       .  D
C686        H688   1.085       .  S
C689        C690   1.206       .  T
C690        C691   1.413       .  S
C691        C692   1.206       .  T
C693        H695   1.087       .  S
C693        C694   1.345       .  D
C694        H696   1.088       .  S
C697        C698   1.205       .  T
C698        C699   1.410       .  S
C699        C700   1.204       .  T
C701        C702   1.204       .  T
C702        C703   1.410       .  S
C703        C704   1.204       .  T
C705        C706   1.206       .  T
C706        C707   1.412       .  S
C707        C708   1.205       .  T
C709        H711   1.087       .  S
C709        C710   1.344       .  D
C710        H712   1.088       .  S
C713        C714   1.204       .  T
C714        C715   1.409       .  S
C715        C716   1.204       .  T
C717        C718   1.204       .  T
C718        C719   1.409       .  S
C719        C720   1.204       .  T
C721        C722   1.204       .  T
C722        C723   1.410       .  S
C723        C724   1.204       .  T
C725        C726   1.204       .  T
C726        C727   1.410       .  S
C727        C728   1.204       .  T
C729        C730   1.205       .  T
C730        C731   1.410       .  S
C731        C732   1.205       .  T
C733        H735   1.087       .  S
C733        C734   1.350       .  D
C734        H736   1.085       .  S
C737        C738   1.210       .  T
C738        C739   1.418       .  S
C739        C740   1.210       .  T
C741        C742   1.205       .  T
C742        C743   1.411       .  S
C743        C744   1.205       .  T
C745        H747   1.087       .  S
C745        C746   1.344       .  D
C746        H748   1.085       .  S
C749        C750   1.202       .  T
C750        C751   1.405       .  S
C751        C752   1.201       .  T
C753        C754   1.207       .  T
C754        C755   1.415       .  S
C755        C756   1.208       .  T
C757        C758   1.205       .  T
C758        C759   1.410       .  S
C759        C760   1.204       .  T
C761        C762   1.206       .  T
C762        C763   1.412       .  S
C763        C764   1.206       .  T
C765        H767   1.089       .  S
C765        C766   1.343       .  D
C766        H768   1.090       .  S
C769        C770   1.205       .  T
C770        C771   1.411       .  S
C771        C772   1.205       .  T
C773        C774   1.207       .  T
C774        C775   1.415       .  S
C775        C776   1.207       .  T
C777        C778   1.204       .  T
C778        C779   1.410       .  S
C779        C780   1.204       .  T
C781        H783   1.087       .  S
C781        C782   1.345       .  D
C782        H784   1.087       .  S
C785        H787   1.087       .  S
C785        C786   1.348       .  D
C786        H788   1.086       .  S
C789        C790   1.208       .  T
C791        H793   1.085       .  S
C791        C792   1.344       .  D
C792        H794   1.087       .  S
C795        C796   1.206       .  T
C797        H799   1.088       .  S
C797        C798   1.342       .  D
C798        H800   1.089       .  S
C801        C802   1.208       .  T
C803        H805   1.086       .  S
C803        C804   1.344       .  D
C804        H806   1.087       .  S
C807        C808   1.207       .  T
C809        H811   1.083       .  S
C809        C810   1.348       .  D
C810        H812   1.085       .  S
C813        C814   1.208       .  T
C815        C816   1.212       .  T
C817        C818   1.206       .  T
C819        C820   1.206       .  T
C821        H823   1.086       .  S
C821        C822   1.344       .  D
C822        H824   1.087       .  S
C825        C826   1.208       .  T
C827        C828   1.209   1_655  T
C829        C830   1.206       .  T
C831        C832   1.207       .  T
C833        H835   1.087       .  S
C833        C834   1.347       .  D
C834        H836   1.088       .  S
C837        C838   1.211       .  T
C839        C840   1.207       .  T
C841        H843   1.087       .  S
C841        C842   1.345       .  D
C842        H844   1.087       .  S
C845        C846   1.206       .  T
C847        C848   1.205   1_565  T
C849        C850   1.208       .  T
C851        C852   1.206       .  T
C853        H855   1.087       .  S
C853        C854   1.345       .  D
C854        H856   1.087       .  S
C857        H859   1.088       .  S
C857        C858   1.344       .  D
C858        H860   1.086       .  S
C861        C862   1.206       .  T
C862        C863   1.413       .  S
C863        C864   1.206       .  T
C865        H867   1.085       .  S
C865        C866   1.347       .  D
C866        H868   1.087       .  S
C869        C870   1.204       .  T
C870        C871   1.409       .  S
C871        C872   1.204       .  T
C873        H875   1.087       .  S
C873        C874   1.344       .  D
C874        H876   1.085       .  S
C877        C878   1.204       .  T
C878        C879   1.409       .  S
C879        C880   1.204       .  T
C881        C882   1.208       .  T
C882        C883   1.415       .  S
C883        C884   1.208       .  T
C885        H887   1.088       .  S
C885        C886   1.345       .  D
C886        H888   1.087       .  S
C889        C890   1.206       .  T
C890        C891   1.412       .  S
C891        C892   1.206       .  T
C893        C894   1.205       .  T
C894        C895   1.412       .  S
C895        C896   1.206       .  T
C897        H899   1.086       .  S
C897        C898   1.349       .  D
C898        H900   1.087       .  S
C901        C902   1.204       .  T
C902        C903   1.410       .  S
C903        C904   1.204       .  T
C905        C906   1.204       .  T
C906        C907   1.410       .  S
C907        C908   1.204       .  T
C909        C910   1.210       .  T
C910        C911   1.419       .  S
C911        C912   1.210       .  T
