geometry optimzed in LAMMPS
_audit_creation_date              2020-11-30 
_audit_creation_method            'lammps2cif' 
_symmetry_space_group_name_H-M    'P1' 
_symmetry_Int_Tables_number       1 
_symmetry_cell_setting            triclinic 
loop_ 
_symmetry_equiv_pos_as_xyz 
  x,y,z 
_cell_length_a                    38.71782624 
_cell_length_b                    38.701846077368735 
_cell_length_c                    33.368431083824795 
_cell_angle_alpha                 90.74357837027362 
_cell_angle_beta                  89.90800287425223 
_cell_angle_gamma                 89.43799255423997 
loop_ 
_atom_site_label 
_atom_site_type_symbol 
_atom_site_fract_x 
_atom_site_fract_y 
_atom_site_fract_z 
_atom_site_charge 
O1          O  0.00704415  0.44584304  0.01872543    -0.70300
O2          O  0.49693832  0.05453574  0.04968042    -0.70600
O3          O  0.45535288  0.49921441  0.04459735    -0.70400
O4          O  0.04529661  0.00860175  0.05787360    -0.70400
O5          O  0.05680174  0.50312307  0.48968864    -0.70400
O6          O  0.45556648  0.00625184  0.49147409    -0.70400
O7          O  0.00665774  0.04869964  0.47914427    -0.70300
O8          O  0.50242331  0.45821004  0.45113891    -0.70500
V9          V  0.50445333  0.50409797  0.03783592     1.35200
V10         V  0.50423505  0.00753902  0.48502640     1.35200
C11         C  0.51082273  0.43802254  0.47907350     0.78900
C12         C  0.50128734  0.07248202  0.51916926     0.79000
C13         C  0.43379255  0.00193512  0.02844941     0.78800
C14         C  0.06007756  0.01101172  0.02425577     0.78800
O15         O  0.05067815  0.49080442  0.21971047    -0.70300
O16         O  0.45207982  0.49933391  0.19656455    -0.70600
O17         O  0.99009970  0.04357266  0.21210811    -0.70400
O18         O  0.49862358  0.44785561  0.19910011    -0.70400
O19         O  0.99512574  0.44032697  0.27035203    -0.70400
O20         O  0.49022069  0.04103118  0.27625350    -0.70400
O21         O  0.44237414  0.49295351  0.26018734    -0.70300
O22         O  0.04187169  0.49107447  0.28404422    -0.70500
V23         V  0.00196415  0.49328590  0.21214789     1.35200
V24         V  0.49046602  0.49058434  0.26883249     1.35200
C25         C  0.06280353  0.49023105  0.25490644     0.78900
C26         C  0.43084061  0.49526562  0.22495783     0.79000
C27         C  0.49515778  0.06075780  0.24680639     0.78800
C28         C  0.49121915  0.42848634  0.22804134     0.78800
N29         N  0.99221744  0.21191543  0.04207693    -0.35200
N30         N  0.01087471  0.20861483  0.45607000    -0.55700
N31         N  0.00920012  0.28275121  0.45668701    -0.35200
N32         N  0.00432288  0.28540244  0.04432243    -0.55700
C33         C  0.97796571  0.18116217  0.03248594     0.28400
C34         C  0.98116104  0.22075036  0.07921816     0.28400
C35         C  0.01502311  0.27666579  0.41708808     0.28400
C36         C  0.01550689  0.31654629  0.46395714     0.28400
C37         C  0.02288993  0.17702398  0.46530868     0.37000
C38         C  0.02174718  0.21500429  0.41860567     0.37000
C39         C  0.00899769  0.27765974  0.08339897     0.37000
C40         C  0.01654148  0.31761499  0.03900752     0.37000
C41         C  0.95636275  0.17098230  0.06325271    -0.20400
C42         C  0.95865358  0.19588871  0.09301051    -0.20400
C43         C  0.02678140  0.30669695  0.39961662    -0.20400
C44         C  0.02601695  0.33206903  0.42885858    -0.20400
C45         C  0.04302053  0.16367926  0.43427545    -0.21500
C46         C  0.04311803  0.18838396  0.40492925    -0.21500
C47         C  0.02563475  0.30460855  0.10277251    -0.21500
C48         C  0.02964824  0.33020952  0.07502770    -0.21500
C49         C  0.01050412  0.15872547  0.49826631    -0.16900
C50         C  0.99447194  0.24845136  0.10221458    -0.16900
C51         C  0.01353460  0.33384828  0.50148489    -0.16800
C52         C  0.01096975  0.24426194  0.39702341    -0.16800
H53         H  0.94121523  0.14768663  0.06466164     0.16100
H54         H  0.94599575  0.19527800  0.12193165     0.16100
H55         H  0.03545280  0.30996173  0.36906906     0.16100
H56         H  0.03391058  0.35859392  0.42517908     0.16100
H57         H  0.05553503  0.13856437  0.43265236     0.14300
H58         H  0.05620016  0.18643897  0.37628587     0.14300
H59         H  0.03314235  0.30620509  0.13395845     0.14300
H60         H  0.04176938  0.35476211  0.08099848     0.15500
H61         H  0.01221312  0.22364732  0.02647081     0.27600
H62         H  0.99792341  0.26586272  0.47666657     0.27600
N63         N  0.48987673  0.28517253  0.28703234    -0.35200
N64         N  0.50388765  0.21104081  0.28469149    -0.55700
N65         N  0.49388906  0.21115724  0.19793155    -0.35200
N66         N  0.47866962  0.28403749  0.20084512    -0.55700
C67         C  0.48843938  0.27800512  0.32657230     0.28400
C68         C  0.47383682  0.31608746  0.28225564     0.28400
C69         C  0.50929900  0.18008269  0.20406615     0.28400
C70         C  0.50010402  0.22027894  0.15940431     0.28400
C71         C  0.49943522  0.21624367  0.32465886     0.37000
C72         C  0.49922209  0.17681994  0.27721134     0.37000
C73         C  0.46579962  0.31581932  0.20904947     0.37000
C74         C  0.46940217  0.27632745  0.16279945     0.37000
C75         C  0.46957197  0.30361738  0.34646926    -0.20400
C76         C  0.46141342  0.32820082  0.31882321    -0.20400
C77         C  0.52559901  0.16921418  0.16897895    -0.20400
C78         C  0.52043381  0.19483431  0.14115655    -0.20400
C79         C  0.48905005  0.18567001  0.34181629    -0.21500
C80         C  0.49088042  0.16051906  0.31265632    -0.21500
C81         C  0.44695555  0.32791240  0.17685837    -0.21500
C82         C  0.44826749  0.30231158  0.14792974    -0.21500
C83         C  0.50320917  0.24866566  0.34507219    -0.16900
C84         C  0.46973217  0.33358933  0.24578919    -0.16900
C85         C  0.48513853  0.24946551  0.13988409    -0.16800
C86         C  0.50589325  0.16039597  0.23948907    -0.16800
H87         H  0.46202182  0.30442100  0.37770430     0.16100
H88         H  0.44643430  0.35139453  0.32493918     0.16100
H89         H  0.53965928  0.14531536  0.16362765     0.16100
H90         H  0.52985231  0.19417168  0.11061678     0.16100
H91         H  0.48027301  0.18157570  0.37211644     0.14300
H92         H  0.48650409  0.13355387  0.31814524     0.14300
H93         H  0.43321314  0.35231172  0.17480814     0.14300
H94         H  0.43689744  0.30365637  0.11837583     0.14300
H95         H  0.50422746  0.27166968  0.26546111     0.27600
H96         H  0.47667252  0.22328930  0.21773927     0.27600
N97         N  0.28391455  0.00595369  0.05047752    -0.35200
N98         N  0.28977026  0.50471956  0.44609086    -0.55700
N99         N  0.21774588  0.00952129  0.46249682    -0.35200
N100        N  0.20861853  0.00768072  0.04981096    -0.55700
C101        C  0.31653360  0.01712180  0.04389701     0.28400
C102        C  0.27614570  0.01315007  0.08935475     0.28400
C103        C  0.22532212  0.01536984  0.42359296     0.28400
C104        C  0.18625362  0.02391214  0.46954778     0.28400
C105        C  0.32374432  0.51226049  0.45074565     0.37000
C106        C  0.28252647  0.50757529  0.40637589     0.37000
C107        C  0.21376358  0.01126607  0.08971970     0.37000
C108        C  0.17422301  0.01129284  0.04402985     0.37000
C109        C  0.32897167  0.03272610  0.07856208    -0.20400
C110        C  0.30331804  0.03072775  0.10699147    -0.20400
C111        C  0.19945903  0.03550739  0.40670769    -0.20400
C112        C  0.17425377  0.03990067  0.43536846    -0.20400
C113        C  0.33738758  0.52173109  0.41395938    -0.21500
C114        C  0.31107982  0.52023052  0.38662085    -0.21500
C115        C  0.18338983  0.02160061  0.10827578    -0.21500
C116        C  0.15800593  0.01905085  0.08021420    -0.21500
C117        C  0.34257559  0.51157155  0.48758614    -0.16900
C118        C  0.24527758  0.00365870  0.10934686    -0.16900
C119        C  0.16818299  0.02407336  0.50627522    -0.16800
C120        C  0.25037782  0.49903193  0.38780935    -0.16800
H121        H  0.35349952  0.04545757  0.08259030     0.16100
H122        H  0.30449602  0.04105535  0.13725588     0.16100
H123        H  0.18987245  0.53545966  0.36021404     0.16100
H124        H  0.15034840  0.05428891  0.43196546     0.16100
H125        H  0.36324418  0.52988196  0.40688228     0.14300
H126        H  0.31300738  0.52733300  0.35544468     0.14300
H127        H  0.17943586  0.02925208  0.13924064     0.14300
H128        H  0.13106897  0.02321101  0.08688010     0.14300
H129        H  0.26915970  0.99092207  0.03102204     0.27600
H130        H  0.23150322  0.99336176  0.48157227     0.27600
N131        N  0.28627815  0.48257000  0.19707997    -0.35200
N132        N  0.21143451  0.47834142  0.19714364    -0.55700
N133        N  0.21000585  0.48330388  0.28462074    -0.35200
N134        N  0.28488268  0.47851454  0.28409315    -0.55700
C135        C  0.27953638  0.47640828  0.15793764     0.28400
C136        C  0.31861883  0.47062629  0.20396728     0.28400
C137        C  0.17728770  0.47250720  0.27766789     0.28400
C138        C  0.21653451  0.47930516  0.32427772     0.28400
C139        C  0.21756065  0.47585464  0.15721006     0.37000
C140        C  0.17809132  0.46939325  0.20274959     0.37000
C141        C  0.31800410  0.46845705  0.27789022     0.37000
C142        C  0.27849482  0.47401016  0.32352286     0.37000
C143        C  0.30707410  0.45878670  0.14030823    -0.20400
C144        C  0.33211015  0.45579570  0.16923481    -0.20400
C145        C  0.16319136  0.46087543  0.31321278    -0.20400
C146        C  0.18811452  0.46446436  0.34231212    -0.20400
C147        C  0.18910466  0.46220967  0.13789747    -0.21500
C148        C  0.16381609  0.45910672  0.16633475    -0.21500
C149        C  0.33183973  0.45536876  0.31297983    -0.21500
C150        C  0.30627995  0.45754411  0.34133331    -0.21500
C151        C  0.24868718  0.48586317  0.13829075    -0.16900
C152        C  0.33590410  0.47118400  0.24111749    -0.16900
C153        C  0.24852541  0.48638861  0.34367112    -0.16800
C154        C  0.16015693  0.47098121  0.23995644    -0.16800
H155        H  0.30877406  0.44884089  0.10989643     0.16100
H156        H  0.35687283  0.44289950  0.16561874     0.16100
H157        H  0.13813882  0.44929225  0.31739559     0.16100
H158        H  0.18590080  0.45608186  0.37301280     0.16100
H159        H  0.18663683  0.45553310  0.10644212     0.14300
H160        H  0.13815827  0.44970215  0.16028351     0.14300
H161        H  0.35720110  0.44436249  0.31790079     0.14300
H162        H  0.30836811  0.44906088  0.37202031     0.14300
H163        H  0.27100461  0.49733169  0.21661111     0.27600
H164        H  0.22604938  0.49557676  0.26440291     0.27600
C165        C  0.10052820  0.48893330  0.26180590    -0.15000
C166        C  0.12143581  0.46896714  0.23870911    -0.30200
H167        H  0.11115392  0.50495712  0.28562623     0.14000
H168        H  0.10784257  0.96679868  0.28323662     0.14600
C169        C  0.39347802  0.49175430  0.21765828    -0.15000
C170        C  0.37442733  0.47183102  0.24197170    -0.30200
H171        H  0.38171567  0.50545230  0.19289046     0.14000
H172        H  0.38779661  0.95843471  0.27519710     0.14600
C173        C  0.48681571  0.39104438  0.22167164    -0.15000
C174        C  0.46807531  0.37204246  0.24710004    -0.30200
H175        H  0.49993854  0.37876551  0.19636664     0.14000
H176        H  0.96388682  0.38122424  0.28267927     0.14600
C177        C  0.48992547  0.09856235  0.25115803    -0.15000
C178        C  0.51204876  0.12196434  0.23656832    -0.30200
H179        H  0.46619703  0.10710238  0.26563727     0.14000
H180        H  0.03799403  0.10784917  0.22974658     0.14600
C181        C  0.11099382  0.00359852  0.48324773    -0.15000
C182        C  0.12965129  0.02512233  0.50631713    -0.30200
H183        H  0.12332614  0.98809266  0.45982354     0.14000
H184        H  0.11025830  0.53971088  0.02009230     0.14600
C185        C  0.40458301  0.00033801  0.53094101    -0.15000
C186        C  0.38146075  0.51547894  0.48542762    -0.30200
H187        H  0.38501542  0.99103983  0.06142137     0.14000
H188        H  0.39224694  0.53086047  0.46170783     0.14600
C189        C  0.02680174  0.39581984  0.51587603    -0.15000
C190        C  0.00599573  0.37172650  0.50046163    -0.30200
H191        H  0.98557520  0.38439025  0.95428796     0.14000
H192        H  0.54742392  0.39124746  0.51834456     0.14600
C193        C  0.00644749  0.12089737  0.49285293    -0.15000
C194        C  0.01073175  0.09818433  0.52236683    -0.30200
H195        H  0.49296967  0.11734009  0.46015477     0.14000
H196        H  0.99411512  0.11515171  0.05821379     0.14600
O197        O  0.01474554  0.44817942  0.55051518    -0.70300
O198        O  0.50291289  0.05520775  0.55086058    -0.70600
O199        O  0.46346044  0.49419363  0.53092155    -0.70400
O200        O  0.06142692  0.99717248  0.52498124    -0.70400
O201        O  0.04488987  0.49919024  0.95513098    -0.70400
O202        O  0.44622686  0.00361517  0.99348945    -0.70400
O203        O  0.98834132  0.04796641  0.99554627    -0.70300
O204        O  0.49633226  0.45498699  0.97449522    -0.70500
V205        V  0.51202041  0.49935731  0.52172862     1.35200
V206        V  0.49484642  0.00492702  0.98580536     1.35200
C207        C  0.50537912  0.43880681  0.00569395     0.78900
C208        C  0.49372722  0.07084007  0.01750436     0.79000
C209        C  0.44278187  0.00164235  0.52581230     0.78800
C210        C  0.07363013  0.99979585  0.48991777     0.78800
O211        O  0.05135896  0.49257972  0.71966065    -0.70300
O212        O  0.45502902  0.50335554  0.69844875    -0.70600
O213        O  0.00150504  0.04503061  0.72319645    -0.70400
O214        O  0.50229366  0.45227331  0.70060455    -0.70400
O215        O  0.99646284  0.44126810  0.76868965    -0.70400
O216        O  0.49660685  0.04430272  0.76879310    -0.70400
O217        O  0.44684663  0.49337408  0.76166121    -0.70300
O218        O  0.04342153  0.49169849  0.78408761    -0.70500
V219        V  0.00237653  0.49641037  0.71334014     1.35200
V220        V  0.49499170  0.49611440  0.76954997     1.35200
C221        C  0.06404254  0.49141444  0.75461963     0.78900
C222        C  0.43444901  0.49757025  0.72709284     0.79000
C223        C  0.49875882  0.06386259  0.73878064     0.78800
C224        C  0.49897420  0.43312533  0.73063988     0.78800
N225        N  0.00907145  0.20857437  0.54365720    -0.35200
N226        N  0.99247378  0.21092263  0.95540977    -0.55700
N227        N  0.00410142  0.28586086  0.95707836    -0.35200
N228        N  0.01003255  0.28276428  0.54410149    -0.55700
C229        C  0.99841183  0.17667052  0.53281260     0.28400
C230        C  0.99434835  0.21660201  0.57937933     0.28400
C231        C  0.00860530  0.27910517  0.91743305     0.28400
C232        C  0.01520134  0.31840067  0.96433987     0.28400
C233        C  0.00069264  0.17801129  0.96448452     0.37000
C234        C  0.00694377  0.21700426  0.91953369     0.37000
C235        C  0.01516882  0.27618604  0.58341770     0.37000
C236        C  0.01688413  0.31654689  0.53861670     0.37000
C237        C  0.97592237  0.16436639  0.56159174    -0.20400
C238        C  0.97332617  0.18967336  0.59106458    -0.20400
C239        C  0.02409961  0.30721208  0.89967219    -0.20400
C240        C  0.02784253  0.33208658  0.92905930    -0.20400
C241        C  0.02132407  0.16324475  0.93485650    -0.21500
C242        C  0.02622103  0.18850054  0.90678603    -0.21500
C243        C  0.02796465  0.30534220  0.60241835    -0.21500
C244        C  0.02740049  0.33128055  0.57468060    -0.21500
C245        C  0.98765706  0.16132192  0.99832283    -0.16900
C246        C  0.00259009  0.24627492  0.60269887    -0.16900
C247        C  0.01595547  0.33564167  0.00216676    -0.16800
C248        C  0.00069178  0.24738372  0.89769339    -0.16800
H249        H  0.96271838  0.13986195  0.56149162     0.16100
H250        H  0.95819274  0.18817565  0.61827281     0.16100
H251        H  0.03294356  0.30925451  0.86902931     0.16100
H252        H  0.04006939  0.35684145  0.92515982     0.16100
H253        H  0.03193150  0.13727362  0.93381743     0.14300
H254        H  0.04116474  0.18587144  0.87945372     0.14300
H255        H  0.03478702  0.30837039  0.63368797     0.14300
H256        H  0.03429333  0.35767568  0.58113067     0.15500
H257        H  0.02844505  0.22241521  0.52938254     0.27600
H258        H  0.99130111  0.27021510  0.97715385     0.27600
N259        N  0.48709387  0.28790950  0.78496999    -0.35200
N260        N  0.50045938  0.21331836  0.78326967    -0.55700
N261        N  0.50112366  0.21509581  0.69665874    -0.35200
N262        N  0.48694480  0.28877034  0.69852855    -0.55700
C263        C  0.47978656  0.27961361  0.82326136     0.28400
C264        C  0.47270482  0.31938070  0.77861093     0.28400
C265        C  0.51602705  0.18399071  0.70430703     0.28400
C266        C  0.51158408  0.22475001  0.65968518     0.28400
C267        C  0.49026737  0.21799207  0.82173991     0.37000
C268        C  0.49678264  0.17927588  0.77441554     0.37000
C269        C  0.47581437  0.32148687  0.70507813     0.37000
C270        C  0.48344590  0.28250202  0.65888785     0.37000
C271        C  0.45870456  0.30501625  0.84032441    -0.20400
C272        C  0.45537460  0.33073467  0.81271504    -0.20400
C273        C  0.53625276  0.17379335  0.67185582    -0.20400
C274        C  0.53375498  0.19964549  0.64394383    -0.20400
C275        C  0.47744841  0.18729672  0.83628761    -0.21500
C276        C  0.48318462  0.16247287  0.80723659    -0.21500
C277        C  0.46378205  0.33570200  0.66985267    -0.21500
C278        C  0.46780853  0.31063299  0.64067867    -0.21500
C279        C  0.49216257  0.24989458  0.84319385    -0.16900
C280        C  0.47473517  0.33812238  0.74285374    -0.16900
C281        C  0.49919048  0.25414687  0.63864322    -0.16800
C282        C  0.50892356  0.16361957  0.73830654    -0.16800
H283        H  0.44709758  0.30519336  0.86984767     0.16100
H284        H  0.44053946  0.35431454  0.81694905     0.16100
H285        H  0.55104776  0.15010227  0.66828730     0.16100
H286        H  0.54629093  0.19956234  0.61493547     0.16100
H287        H  0.46536976  0.18297729  0.86501957     0.14300
H288        H  0.47776939  0.13539116  0.81068238     0.14300
H289        H  0.45254610  0.36113807  0.66584130     0.14300
H290        H  0.46138999  0.31343629  0.60933344     0.14300
H291        H  0.50430353  0.27476964  0.76606126     0.27600
H292        H  0.48172956  0.22699817  0.71374406     0.27600
N293        N  0.29333305  0.00723024  0.54992303    -0.35200
N294        N  0.28544876  0.51045496  0.94948033    -0.55700
N295        N  0.20870702  0.00268206  0.96240409    -0.35200
N296        N  0.21867342  0.01605594  0.54921264    -0.55700
C297        C  0.32636001  0.01692657  0.54306213     0.28400
C298        C  0.28633863  0.01404074  0.58906374     0.28400
C299        C  0.21497703  0.00986859  0.92343926     0.28400
C300        C  0.17539864  0.01165013  0.96976989     0.28400
C301        C  0.31887805  0.51951226  0.95543577     0.37000
C302        C  0.27843475  0.51544695  0.91010020     0.37000
C303        C  0.22420714  0.01889621  0.58906824     0.37000
C304        C  0.18529326  0.02514945  0.54347300     0.37000
C305        C  0.34001719  0.03097171  0.57803000    -0.20400
C306        C  0.31460186  0.02971841  0.60678305    -0.20400
C307        C  0.18604742  0.02571770  0.90703603    -0.20400
C308        C  0.16065779  0.02552390  0.93576821    -0.20400
C309        C  0.33232921  0.53231808  0.92006986    -0.21500
C310        C  0.30646526  0.53086853  0.89202783    -0.21500
C311        C  0.19548576  0.03327788  0.60788432    -0.21500
C312        C  0.17037944  0.03592479  0.57937907    -0.21500
C313        C  0.33724442  0.51684647  0.99235942    -0.16900
C314        C  0.25450738  0.00739262  0.60855505    -0.16900
C315        C  0.15766759  0.00863478  0.00638501    -0.16800
C316        C  0.24743081  0.50523622  0.89009481    -0.16800
H317        H  0.36524638  0.04225744  0.58211260     0.16100
H318        H  0.31653649  0.03975636  0.63711495     0.16100
H319        H  0.18422066  0.53685688  0.86229647     0.16100
H320        H  0.13473217  0.03586946  0.93264906     0.16100
H321        H  0.35767232  0.54270170  0.91467070     0.14300
H322        H  0.30837185  0.53962145  0.86144110     0.14300
H323        H  0.19259605  0.04053911  0.63913934     0.14300
H324        H  0.14454185  0.04566438  0.58486031     0.14300
H325        H  0.27737617  0.99371162  0.53029979     0.27600
H326        H  0.22493503  0.98892941  0.98142338     0.27600
N327        N  0.28920019  0.48873720  0.69931122    -0.35200
N328        N  0.21473640  0.48396494  0.69702322    -0.55700
N329        N  0.21102209  0.48966607  0.78509848    -0.35200
N330        N  0.28620258  0.48785502  0.78722076    -0.55700
C331        C  0.28367279  0.48149130  0.66001167     0.28400
C332        C  0.32139787  0.47713615  0.70799400     0.28400
C333        C  0.17948334  0.47635926  0.77682246     0.28400
C334        C  0.21719595  0.48462968  0.82467899     0.28400
C335        C  0.22122143  0.48258054  0.65694238     0.37000
C336        C  0.18078848  0.47653334  0.70185552     0.37000
C337        C  0.31949910  0.47782869  0.78213370     0.37000
C338        C  0.27911423  0.48383475  0.82660871     0.37000
C339        C  0.31168188  0.46318803  0.64445892    -0.20400
C340        C  0.33577788  0.46111959  0.67446396    -0.20400
C341        C  0.16610723  0.46175063  0.81119790    -0.20400
C342        C  0.19017331  0.46628777  0.84107861    -0.20400
C343        C  0.19208680  0.47122898  0.63691960    -0.21500
C344        C  0.16637304  0.46857206  0.66483746    -0.21500
C345        C  0.33269770  0.46537406  0.81788558    -0.21500
C346        C  0.30670824  0.46802413  0.84553491    -0.21500
C347        C  0.25347934  0.49034284  0.63837256    -0.16900
C348        C  0.33801696  0.47918763  0.74561920    -0.16900
C349        C  0.24781847  0.49404531  0.84546337    -0.16800
C350        C  0.16256469  0.47597962  0.73898809    -0.16800
H351        H  0.31433808  0.45202977  0.61470306     0.16100
H352        H  0.36055294  0.44802267  0.67231126     0.16100
H353        H  0.14208525  0.44792543  0.81404396     0.16100
H354        H  0.18834553  0.45645252  0.87121577     0.16100
H355        H  0.18949104  0.46506688  0.60536573     0.14300
H356        H  0.14035477  0.46063651  0.65802343     0.14300
H357        H  0.35773072  0.45394262  0.82363003     0.14300
H358        H  0.30807781  0.45939947  0.87622041     0.14300
H359        H  0.27328859  0.50386277  0.71781025     0.27600
H360        H  0.22622551  0.50408548  0.76586831     0.27600
C361        C  0.10200964  0.49086419  0.76121387    -0.15000
C362        C  0.12380273  0.47244316  0.73741699    -0.30200
H363        H  0.11216365  0.50647497  0.78568152     0.14000
H364        H  0.11147396  0.96309209  0.72088882     0.14600
C365        C  0.39681245  0.49545527  0.72076319    -0.15000
C366        C  0.37664677  0.47910758  0.74739963    -0.30200
H367        H  0.38573124  0.50762534  0.69455676     0.14000
H368        H  0.38970488  0.97043904  0.78279416     0.14600
C369        C  0.49671173  0.39551297  0.72494284    -0.15000
C370        C  0.47407916  0.37658095  0.74564308    -0.30200
H371        H  0.51331790  0.38329376  0.70251517     0.14000
H372        H  0.96209434  0.38419069  0.77802437     0.14600
C373        C  0.49266385  0.10151908  0.74334248    -0.15000
C374        C  0.51668386  0.12550293  0.73599706    -0.30200
H375        H  0.46672188  0.10960318  0.75178470     0.14000
H376        H  0.03436243  0.11001141  0.73731239     0.14600
C377        C  0.09611133  0.02169062  0.02205767    -0.15000
C378        C  0.11999245  0.00181155  0.00400547    -0.30200
H379        H  0.10322439  0.04551906  0.03724031     0.14000
H380        H  0.11418326  0.53654377  0.47142274     0.14600
C381        C  0.39545539  0.00249309  0.03453233    -0.15000
C382        C  0.37627146  0.51915016  0.99184161    -0.30200
H383        H  0.39406770  0.98504352  0.55504217     0.14000
H384        H  0.38858480  0.53284564  0.96769996     0.14600
C385        C  0.00073210  0.39513156  0.97870716    -0.15000
C386        C  0.01848836  0.37424177  0.00364048    -0.30200
H387        H  0.05103948  0.38841854  0.52971592     0.14000
H388        H  0.46678750  0.38796978  0.97494516     0.14600
C389        C  0.98447670  0.12288730  0.99687989    -0.15000
C390        C  0.98843522  0.10321600  0.02940274    -0.30200
H391        H  0.48190746  0.11534625  0.95817396     0.14000
H392        H  0.01700012  0.10697066  0.55250493     0.14600
O393        O  0.00432002  0.95209368  0.06191133    -0.70300
O394        O  0.49968561  0.55238742  0.04138987    -0.70600
O395        O  0.45488138  0.00018465  0.05756370    -0.70400
O396        O  0.05348824  0.49706555  0.01943066    -0.70400
O397        O  0.05302270  0.99917677  0.46065526    -0.70400
O398        O  0.45469397  0.50771639  0.46879814    -0.70400
O399        O  0.00397744  0.54793884  0.49168895    -0.70300
O400        O  0.50664266  0.95807546  0.48254203    -0.70500
V401        V  0.50351147  0.00630303  0.04744237     1.35200
V402        V  0.50353051  0.50682323  0.46081254     1.35200
C403        C  0.51719528  0.94199480  0.51312620     0.78900
C404        C  0.50635696  0.56795669  0.50353748     0.79000
C405        C  0.43567174  0.50352093  0.01454159     0.78800
C406        C  0.06560540  0.49891672  0.98423675     0.78800
O407        O  0.04284900  0.99811766  0.20365876    -0.70300
O408        O  0.44866040  0.00347414  0.20192910    -0.70600
O409        O  0.00317984  0.54260229  0.21588926    -0.70400
O410        O  0.49305813  0.95020059  0.19746188    -0.70400
O411        O  0.99812331  0.94150770  0.26708383    -0.70400
O412        O  0.49113391  0.53947972  0.27729360    -0.70400
O413        O  0.44451742  0.99012846  0.26481664    -0.70300
O414        O  0.04680970  0.99069669  0.26790605    -0.70500
V415        V  0.99380520  0.99460713  0.20854899     1.35200
V416        V  0.49311584  0.99207161  0.26840064     1.35200
C417        C  0.06157927  0.99460414  0.23447355     0.78900
C418        C  0.43001000  0.99598516  0.23173305     0.79000
C419        C  0.49545900  0.55930608  0.24784272     0.78800
C420        C  0.49238291  0.93020446  0.22697104     0.78800
N421        N  0.01409205  0.71101197  0.04081389    -0.35200
N422        N  0.00914794  0.70895352  0.45611987    -0.55700
N423        N  0.01719806  0.78345849  0.45721733    -0.35200
N424        N  0.01940371  0.78645216  0.04385970    -0.55700
C425        C  0.00206147  0.67951905  0.02975658     0.28400
C426        C  0.00030699  0.71923668  0.07698379     0.28400
C427        C  0.02101476  0.77671846  0.41729045     0.28400
C428        C  0.02781240  0.81629434  0.46438656     0.28400
C429        C  0.01738808  0.67608728  0.46505758     0.37000
C430        C  0.02140714  0.71445638  0.41904305     0.37000
C431        C  0.02399504  0.77820500  0.08284718     0.37000
C432        C  0.02999117  0.81944877  0.03936747     0.37000
C433        C  0.97951320  0.66790899  0.05884414    -0.20400
C434        C  0.97852080  0.69293369  0.08874343    -0.20400
C435        C  0.03547204  0.80530850  0.39937006    -0.20400
C436        C  0.03907107  0.83033802  0.42871066    -0.20400
C437        C  0.03628052  0.66081193  0.43416697    -0.21500
C438        C  0.03996516  0.68575883  0.40546855    -0.21500
C439        C  0.03939213  0.80562105  0.10288141    -0.21500
C440        C  0.04275149  0.83180473  0.07557341    -0.21500
C441        C  0.00427562  0.65957116  0.49895575    -0.16900
C442        C  0.01020121  0.74810634  0.10093742    -0.16900
C443        C  0.02969777  0.83353877  0.50238561    -0.16800
C444        C  0.01382833  0.74458889  0.39731838    -0.16800
H445        H  0.96506606  0.64413417  0.05868160     0.16100
H446        H  0.96383685  0.69166158  0.11629765     0.16100
H447        H  0.04375411  0.80760861  0.36855033     0.16100
H448        H  0.05049422  0.85543852  0.42451383     0.16100
H449        H  0.04616675  0.63458019  0.43242938     0.14300
H450        H  0.05343684  0.68268638  0.37717473     0.14300
H451        H  0.04656545  0.80705035  0.13418251     0.14300
H452        H  0.05398383  0.85682957  0.08157984     0.15500
H453        H  0.03369918  0.72442627  0.02643398     0.27600
H454        H  0.00529132  0.76759292  0.47778871     0.27600
N455        N  0.48985978  0.78571990  0.28554422    -0.35200
N456        N  0.49982433  0.71077391  0.28472790    -0.55700
N457        N  0.49601953  0.71062225  0.19810456    -0.35200
N458        N  0.48413109  0.78464755  0.19918867    -0.55700
C459        C  0.48426822  0.77779320  0.32428391     0.28400
C460        C  0.47311024  0.81597164  0.27918718     0.28400
C461        C  0.51019174  0.67918326  0.20583547     0.28400
C462        C  0.50599311  0.71971111  0.16063644     0.28400
C463        C  0.49468186  0.71657604  0.32442368     0.37000
C464        C  0.49514349  0.67650290  0.27774940     0.37000
C465        C  0.47210689  0.81703741  0.20585096     0.37000
C466        C  0.47769783  0.77708719  0.16033394     0.37000
C467        C  0.46201056  0.80185411  0.34177947    -0.20400
C468        C  0.45579090  0.82657714  0.31364051    -0.20400
C469        C  0.52940634  0.66818950  0.17283775    -0.20400
C470        C  0.52731782  0.69396508  0.14478482    -0.20400
C471        C  0.48376268  0.68639009  0.34208313    -0.21500
C472        C  0.48558154  0.66081497  0.31322858    -0.21500
C473        C  0.45638389  0.82962880  0.17172467    -0.21500
C474        C  0.45921701  0.80392418  0.14304080    -0.21500
C475        C  0.49874113  0.74922938  0.34405883    -0.16900
C476        C  0.47312360  0.83437393  0.24319863    -0.16900
C477        C  0.49369722  0.74918668  0.13945168    -0.16800
C478        C  0.50401086  0.65958942  0.24090136    -0.16800
H479        H  0.45139708  0.80163285  0.37179883     0.16100
H480        H  0.43912369  0.84893012  0.31775546     0.16100
H481        H  0.54362113  0.64419659  0.16901396     0.16100
H482        H  0.53950335  0.69330993  0.11558344     0.16100
H483        H  0.47547754  0.68287522  0.37271768     0.14300
H484        H  0.48096069  0.63392542  0.31897354     0.14300
H485        H  0.44347476  0.85433237  0.16821961     0.14300
H486        H  0.45028016  0.80550925  0.11239793     0.14300
H487        H  0.50717596  0.77319157  0.26616042     0.27600
H488        H  0.47751068  0.72329387  0.21581119     0.27600
N489        N  0.28756924  0.50292460  0.03613033    -0.35200
N490        N  0.29289295  0.00745306  0.46226691    -0.55700
N491        N  0.21472894  0.50773194  0.44819497    -0.35200
N492        N  0.21250859  0.51054861  0.03687972    -0.55700
C493        C  0.31979548  0.51516582  0.02973686     0.28400
C494        C  0.28077183  0.50694604  0.07577272     0.28400
C495        C  0.22015004  0.51027510  0.40829228     0.28400
C496        C  0.18312502  0.52148972  0.45613640     0.28400
C497        C  0.32709188  0.01325335  0.46813061     0.37000
C498        C  0.28734281  0.00778136  0.42200866     0.37000
C499        C  0.21887520  0.51170455  0.07670065     0.37000
C500        C  0.17968284  0.52199374  0.03215117     0.37000
C501        C  0.33291923  0.52810681  0.06550038    -0.20400
C502        C  0.30820040  0.52330703  0.09434786    -0.20400
C503        C  0.19243276  0.52736348  0.39099269    -0.20400
C504        C  0.16862608  0.53346524  0.42084461    -0.20400
C505        C  0.34279451  0.01903580  0.43143865    -0.21500
C506        C  0.31754237  0.01703329  0.40282197    -0.21500
C507        C  0.19136065  0.52719147  0.09673386    -0.21500
C508        C  0.16611068  0.53259759  0.06885531    -0.21500
C509        C  0.34434390  0.01468011  0.50594219    -0.16900
C510        C  0.24925973  0.49870416  0.09491856    -0.16900
C511        C  0.16727813  0.52401963  0.49434951    -0.16800
C512        C  0.25472437  0.00229271  0.40293925    -0.16800
H513        H  0.35709666  0.54136766  0.07005650     0.16100
H514        H  0.30973927  0.53212147  0.12519575     0.16100
H515        H  0.19865926  0.04563323  0.37663805     0.16100
H516        H  0.14434304  0.54698776  0.41689584     0.16100
H517        H  0.36936514  0.02543311  0.42536917     0.14300
H518        H  0.32111407  0.02283599  0.37148739     0.14300
H519        H  0.18941192  0.53358160  0.12832122     0.14300
H520        H  0.14094309  0.54362324  0.07532786     0.14300
H521        H  0.27207717  0.48979904  0.01566445     0.27600
H522        H  0.23032457  0.49410686  0.46787027     0.27600
N523        N  0.28511389  0.98669046  0.21068860    -0.35200
N524        N  0.20917221  0.98982189  0.21313161    -0.55700
N525        N  0.21112612  0.99008298  0.30085151    -0.35200
N526        N  0.28628671  0.98290775  0.29783082    -0.55700
C527        C  0.27768552  0.98258306  0.17139263     0.28400
C528        C  0.31756431  0.97448273  0.21605496     0.28400
C529        C  0.17739686  0.98193890  0.29517839     0.28400
C530        C  0.21856256  0.98557576  0.34021167     0.28400
C531        C  0.21589140  0.98203527  0.17419539     0.37000
C532        C  0.17673165  0.97885482  0.22058070     0.37000
C533        C  0.31811740  0.96996469  0.28982345     0.37000
C534        C  0.28024454  0.97713427  0.33705682     0.37000
C535        C  0.30501395  0.96597766  0.15202838    -0.20400
C536        C  0.33050429  0.96155838  0.18007002    -0.20400
C537        C  0.16350127  0.97178495  0.33156279    -0.20400
C538        C  0.18959949  0.97305973  0.35939527    -0.20400
C539        C  0.18890556  0.96323734  0.15800055    -0.21500
C540        C  0.16361138  0.96232769  0.18685825    -0.21500
C541        C  0.33142936  0.95399765  0.32348363    -0.21500
C542        C  0.30679502  0.95740982  0.35294004    -0.21500
C543        C  0.24610080  0.99213298  0.15333160    -0.16900
C544        C  0.33545859  0.97303754  0.25279470    -0.16900
C545        C  0.25147293  0.99061402  0.35855724    -0.16800
C546        C  0.15927673  0.98161060  0.25794025    -0.16800
H547        H  0.30621090  0.95719896  0.12113251     0.16100
H548        H  0.35516071  0.94881507  0.17497228     0.16100
H549        H  0.13785018  0.96250857  0.33771315     0.16100
H550        H  0.18757752  0.96481115  0.39016187     0.16100
H551        H  0.18735729  0.95208217  0.12814870     0.14300
H552        H  0.13896136  0.94961993  0.18386454     0.14300
H553        H  0.35577312  0.94037264  0.32647982     0.14300
H554        H  0.30864037  0.94741157  0.38300963     0.14300
H555        H  0.27012494  0.00028114  0.23149972     0.27600
H556        H  0.22754047  0.00102663  0.28005456     0.27600
C557        C  0.09981117  0.99524297  0.23141524    -0.15000
C558        C  0.12038686  0.97977573  0.25870932    -0.30200
H559        H  0.11112715  0.00846820  0.20615197     0.14000
H560        H  0.10933381  0.45288877  0.21602485     0.14600
C561        C  0.39227723  0.99340570  0.22808640    -0.15000
C562        C  0.37399820  0.97291376  0.25256415    -0.30200
H563        H  0.37944952  0.00847649  0.20516228     0.14000
H564        H  0.38775655  0.45835076  0.26572955     0.14600
C565        C  0.48917867  0.89277920  0.22014646    -0.15000
C566        C  0.47211649  0.87286724  0.24602865    -0.30200
H567        H  0.50095395  0.88160446  0.19335131     0.14000
H568        H  0.96692278  0.88151479  0.27862107     0.14600
C569        C  0.48933994  0.59709691  0.25250089    -0.15000
C570        C  0.51125368  0.62117930  0.23900684    -0.30200
H571        H  0.46495417  0.60496747  0.26593027     0.14000
H572        H  0.04019022  0.60717959  0.22946084     0.14600
C573        C  0.11050863  0.50903640  0.52450892    -0.15000
C574        C  0.12854255  0.52547504  0.49606637    -0.30200
H575        H  0.12376322  0.49714670  0.54951753     0.14000
H576        H  0.11194412  0.97898647  0.98727307     0.14600
C577        C  0.40428911  0.49915686  0.50960401    -0.15000
C578        C  0.38317894  0.01755253  0.50581854    -0.30200
H579        H  0.38656211  0.48868165  0.04303315     0.14000
H580        H  0.39499919  0.03322803  0.48297256     0.14600
C581        C  0.01230381  0.89319828  0.48177407    -0.15000
C582        C  0.03236966  0.87220232  0.50403646    -0.30200
H583        H  0.99952862  0.88348514  0.05755956     0.14000
H584        H  0.48405667  0.89082035  0.47482465     0.14600
C585        C  0.99965172  0.62141058  0.49681113    -0.15000
C586        C  0.00154318  0.60099454  0.52896005    -0.30200
H587        H  0.49686163  0.61821441  0.45129044     0.14000
H588        H  0.01369458  0.60802408  0.04760780     0.14600
O589        O  0.01736891  0.94368620  0.52318219    -0.70300
O590        O  0.50812534  0.54743264  0.53254706    -0.70600
O591        O  0.46345236  0.99843008  0.55513329    -0.70400
O592        O  0.05547785  0.50296559  0.55481315    -0.70400
O593        O  0.04289616  0.00542146  0.99280024    -0.70400
O594        O  0.44959046  0.50768896  0.98074443    -0.70400
O595        O  0.00064757  0.55080870  0.97339612    -0.70300
O596        O  0.49799191  0.95555494  0.98496016    -0.70500
V597        V  0.51180665  0.00723692  0.54671638     1.35200
V598        V  0.49836258  0.50446418  0.97592816     1.35200
C599        C  0.50871396  0.94048734  0.01615336     0.78900
C600        C  0.50076973  0.56968721  0.00978586     0.79000
C601        C  0.44237714  0.50061924  0.50286463     0.78800
C602        C  0.07267591  0.50520265  0.52276892     0.78800
O603        O  0.05058928  0.99485110  0.72614523    -0.70300
O604        O  0.44860837  0.00665786  0.69898761    -0.70600
O605        O  0.00457040  0.54554137  0.71995054    -0.70400
O606        O  0.49240014  0.95279903  0.69067428    -0.70400
O607        O  0.99674522  0.94134097  0.77319672    -0.70400
O608        O  0.49078119  0.54503574  0.77563839    -0.70400
O609        O  0.44874788  0.99496350  0.76251959    -0.70300
O610        O  0.04066007  0.99389490  0.79020932    -0.70500
V611        V  0.00176185  0.99607750  0.71748257     1.35200
V612        V  0.49756974  0.99532246  0.76098086     1.35200
C613        C  0.06215871  0.99431832  0.76168079     0.78900
C614        C  0.43200047  0.00087381  0.73091479     0.79000
C615        C  0.49647893  0.56416555  0.74591776     0.78800
C616        C  0.49293077  0.93303907  0.72048764     0.78800
N617        N  0.00910997  0.70975395  0.54352491    -0.35200
N618        N  0.01568189  0.71260048  0.95453612    -0.55700
N619        N  0.02131737  0.78793306  0.95696011    -0.35200
N620        N  0.02015098  0.78303055  0.54476336    -0.55700
C621        C  0.99430630  0.67948222  0.53295122     0.28400
C622        C  0.99589464  0.71939920  0.57955543     0.28400
C623        C  0.02492358  0.78186261  0.91702441     0.28400
C624        C  0.02993965  0.82125484  0.96459286     0.28400
C625        C  0.02576249  0.67997944  0.96211372     0.37000
C626        C  0.02777307  0.71990738  0.91788399     0.37000
C627        C  0.02347729  0.77617176  0.58427620     0.37000
C628        C  0.03095194  0.81570211  0.53936765     0.37000
C629        C  0.97053688  0.67029426  0.56191594    -0.20400
C630        C  0.97170917  0.69544168  0.59153347    -0.20400
C631        C  0.03764350  0.81124760  0.89918741    -0.20400
C632        C  0.04010493  0.83623395  0.92881937    -0.20400
C633        C  0.04547186  0.66670781  0.93069176    -0.21500
C634        C  0.04752960  0.69258298  0.90289772    -0.21500
C635        C  0.03851509  0.80394522  0.60383630    -0.21500
C636        C  0.04225566  0.82934246  0.57578344    -0.21500
C637        C  0.01276599  0.66142660  0.99453397    -0.16900
C638        C  0.00776105  0.74760485  0.60303287    -0.16900
C639        C  0.02896464  0.83827302  0.00284450    -0.16800
C640        C  0.01801834  0.74982615  0.89713793    -0.16800
H641        H  0.95419865  0.64777823  0.56191463     0.16100
H642        H  0.95681173  0.69582444  0.61900277     0.16100
H643        H  0.04497060  0.81430261  0.86813466     0.16100
H644        H  0.04966813  0.86199131  0.92413341     0.16100
H645        H  0.05653864  0.64100259  0.92783362     0.14300
H646        H  0.06048716  0.69095467  0.87415490     0.14300
H647        H  0.04435510  0.80649566  0.63543435     0.14300
H648        H  0.05230746  0.85477310  0.58208777     0.15500
H649        H  0.03007537  0.72091685  0.52905041     0.27600
H650        H  0.01001418  0.77113757  0.97693772     0.27600
N651        N  0.48634327  0.78841464  0.78440317    -0.35200
N652        N  0.49949085  0.71429662  0.78405647    -0.55700
N653        N  0.49836735  0.71371429  0.69695929    -0.35200
N654        N  0.48406547  0.78696429  0.69729428    -0.55700
C655        C  0.48048038  0.78122203  0.82337226     0.28400
C656        C  0.47136965  0.81944260  0.77729936     0.28400
C657        C  0.51375226  0.68305918  0.70530986     0.28400
C658        C  0.50764915  0.72241053  0.65920890     0.28400
C659        C  0.49154655  0.71965857  0.82320638     0.37000
C660        C  0.49658823  0.67991022  0.77657725     0.37000
C661        C  0.47159086  0.81927840  0.70368276     0.37000
C662        C  0.47748677  0.77881378  0.65853438     0.37000
C663        C  0.45958345  0.80678177  0.84037489    -0.20400
C664        C  0.45466708  0.83143425  0.81163561    -0.20400
C665        C  0.53332796  0.67219401  0.67254466    -0.20400
C666        C  0.52994471  0.69726455  0.64377307    -0.20400
C667        C  0.48091563  0.68888141  0.83974805    -0.21500
C668        C  0.48575376  0.66356853  0.81109881    -0.21500
C669        C  0.45547846  0.83119520  0.66947582    -0.21500
C670        C  0.45842243  0.80518538  0.64113990    -0.21500
C671        C  0.49382281  0.75215691  0.84368353    -0.16900
C672        C  0.47271595  0.83729747  0.74075035    -0.16900
C673        C  0.49388037  0.75094525  0.63767430    -0.16800
C674        C  0.50730948  0.66351215  0.74016317    -0.16800
H675        H  0.44912832  0.80768665  0.87047706     0.16100
H676        H  0.43937189  0.85479446  0.81536796     0.16100
H677        H  0.54827223  0.64857001  0.66929354     0.16100
H678        H  0.54188677  0.69647698  0.61443794     0.16100
H679        H  0.47099366  0.68475675  0.86959998     0.14300
H680        H  0.48203986  0.63641401  0.81624790     0.14300
H681        H  0.44221645  0.85567680  0.66569174     0.14300
H682        H  0.44926170  0.80634839  0.61055887     0.14300
H683        H  0.50318090  0.77502770  0.76526773     0.27600
H684        H  0.47920427  0.72576537  0.71430263     0.27600
N685        N  0.29341824  0.50007075  0.53386451    -0.35200
N686        N  0.28370927  0.00776283  0.96296094    -0.55700
N687        N  0.21011066  0.50888277  0.94977287    -0.35200
N688        N  0.21853194  0.51149584  0.53543357    -0.55700
C689        C  0.32596637  0.51096503  0.52580453     0.28400
C690        C  0.28743692  0.50570733  0.57360842     0.28400
C691        C  0.21587514  0.51294672  0.91012084     0.28400
C692        C  0.17753732  0.52013770  0.95757533     0.28400
C693        C  0.31730441  0.01615575  0.96937330     0.37000
C694        C  0.27762332  0.01153562  0.92309381     0.37000
C695        C  0.22608559  0.51547858  0.57478758     0.37000
C696        C  0.18669016  0.52545297  0.53030724     0.37000
C697        C  0.34026899  0.52444210  0.56068130    -0.20400
C698        C  0.31586807  0.52173575  0.59044093    -0.20400
C699        C  0.18704129  0.52820222  0.89282973    -0.20400
C700        C  0.16261960  0.53205561  0.92256777    -0.20400
C701        C  0.33171896  0.02730459  0.93371542    -0.21500
C702        C  0.30636109  0.02573344  0.90521485    -0.21500
C703        C  0.20055618  0.53506348  0.59370972    -0.21500
C704        C  0.17529395  0.54077827  0.56574083    -0.21500
C705        C  0.33489896  0.01525368  0.00701737    -0.16900
C706        C  0.25541032  0.50083714  0.59379400    -0.16900
C707        C  0.16122472  0.52152207  0.99562966    -0.16800
C708        C  0.24633887  0.00266824  0.90272464    -0.16800
H709        H  0.36492489  0.53708051  0.56392305     0.16100
H710        H  0.31819231  0.53207411  0.62059208     0.16100
H711        H  0.18342483  0.03644360  0.87740287     0.16100
H712        H  0.13735736  0.54387970  0.91919574     0.16100
H713        H  0.35718699  0.03735536  0.92834748     0.14300
H714        H  0.30895904  0.03420047  0.87459513     0.14300
H715        H  0.19991002  0.54374704  0.62466469     0.14300
H716        H  0.15135620  0.55484633  0.57081053     0.14300
H717        H  0.27681284  0.48741581  0.51421375     0.27600
H718        H  0.22651902  0.49611403  0.96932685     0.27600
N719        N  0.28862359  0.99237343  0.71229926    -0.35200
N720        N  0.21369902  0.98868712  0.70942802    -0.55700
N721        N  0.20912620  0.99240142  0.79691660    -0.35200
N722        N  0.28492135  0.98807418  0.79915298    -0.55700
C723        C  0.28318289  0.98636879  0.67289969     0.28400
C724        C  0.32051072  0.98000669  0.72037706     0.28400
C725        C  0.17704558  0.98061371  0.78791096     0.28400
C726        C  0.21506689  0.98577187  0.83622279     0.28400
C727        C  0.22171531  0.98485317  0.67005510     0.37000
C728        C  0.18067716  0.97810622  0.71346919     0.37000
C729        C  0.31842068  0.97855206  0.79392816     0.37000
C730        C  0.27726783  0.98196630  0.83799071     0.37000
C731        C  0.31081050  0.96814389  0.65640149    -0.20400
C732        C  0.33474969  0.96469807  0.68628514    -0.20400
C733        C  0.16290955  0.96563147  0.82158548    -0.20400
C734        C  0.18716347  0.96801327  0.85158185    -0.20400
C735        C  0.19504683  0.96878308  0.64988353    -0.21500
C736        C  0.16873250  0.96540744  0.67690817    -0.21500
C737        C  0.33128761  0.96425889  0.82873738    -0.21500
C738        C  0.30475271  0.96507014  0.85602896    -0.21500
C739        C  0.25300648  0.99567684  0.65226283    -0.16900
C740        C  0.33716563  0.98157719  0.75777510    -0.16900
C741        C  0.24625968  0.99276121  0.85748805    -0.16800
C742        C  0.16110946  0.97987965  0.74947458    -0.16800
H743        H  0.31325941  0.95797188  0.62615639     0.16100
H744        H  0.35941511  0.95145619  0.68359499     0.16100
H745        H  0.13858268  0.95222495  0.82360274     0.16100
H746        H  0.18493534  0.95687716  0.88104241     0.16100
H747        H  0.19447174  0.96066617  0.61873135     0.14300
H748        H  0.14417737  0.95383816  0.66991688     0.14300
H749        H  0.35655902  0.95303426  0.83374228     0.14300
H750        H  0.30589200  0.95517197  0.88618597     0.14300
H751        H  0.27291440  0.00730387  0.73122271     0.27600
H752        H  0.22520315  0.00646454  0.77829739     0.27600
C753        C  0.09983674  0.99434860  0.76997256    -0.15000
C754        C  0.12239310  0.97723396  0.74594364    -0.30200
H755        H  0.10895105  0.00851080  0.79612376     0.14000
H756        H  0.11241382  0.45645464  0.71414463     0.14600
C757        C  0.39400206  0.00035867  0.73100111    -0.15000
C758        C  0.37581518  0.98280109  0.75861449    -0.30200
H759        H  0.38080317  0.01358183  0.70685024     0.14000
H760        H  0.38927118  0.46769359  0.77300926     0.14600
C761        C  0.48864477  0.89544054  0.71470541    -0.15000
C762        C  0.47323591  0.87600838  0.74262029    -0.30200
H763        H  0.49833176  0.88382038  0.68707555     0.14000
H764        H  0.95965634  0.88342825  0.77583166     0.14600
C765        C  0.49045583  0.60185177  0.74906512    -0.15000
C766        C  0.51405893  0.62524327  0.73818863    -0.30200
H767        H  0.46541041  0.61036971  0.76020799     0.14000
H768        H  0.03954993  0.60986853  0.73393852     0.14600
C769        C  0.10296999  0.50091557  0.97699051    -0.15000
C770        C  0.12272475  0.52297074  0.99799359    -0.30200
H771        H  0.11429970  0.48422337  0.95398058     0.14000
H772        H  0.11608109  0.04066633  0.52867828     0.14600
C773        C  0.39737152  0.50306777  0.01838550    -0.15000
C774        C  0.37406523  0.01664265  0.00679902    -0.30200
H775        H  0.39501116  0.48382368  0.53433951     0.14000
H776        H  0.38658807  0.02775098  0.98109617     0.14600
C777        C  0.01074602  0.89622089  0.03193488    -0.15000
C778        C  0.02781860  0.87740567  0.00368720    -0.30200
H779        H  0.99567675  0.88243890  0.45870514     0.14000
H780        H  0.48057430  0.88679492  0.97810872     0.14600
C781        C  0.00702377  0.62368804  0.98789642    -0.15000
C782        C  0.00805575  0.60017461  0.01699098    -0.30200
H783        H  0.49504333  0.61739227  0.95256600     0.14000
H784        H  0.00573747  0.61199134  0.55859803     0.14600
O785        O  0.51062343  0.45575464  0.03748120    -0.70300
O786        O  0.99034041  0.04914524  0.06064581    -0.70600
O787        O  0.95598869  0.49171794  0.03552906    -0.70400
O788        O  0.55195846  0.01326207  0.03900053    -0.70400
O789        O  0.55203552  0.50664240  0.45043928    -0.70400
O790        O  0.95600236  0.00211479  0.47867152    -0.70400
O791        O  0.50189051  0.05659179  0.48575491    -0.70300
O792        O  0.01225974  0.44983445  0.48548692    -0.70500
V793        V  0.00475011  0.49426143  0.02664880     1.35200
V794        V  0.00471075  0.00010565  0.47100987     1.35200
C795        C  0.01693692  0.43266086  0.51712721     0.78900
C796        C  0.00864001  0.06083138  0.51450491     0.79000
C797        C  0.93060409  0.99304331  0.03237424     0.78800
C798        C  0.56386351  0.01150867  0.00356409     0.78800
O799        O  0.54909917  0.49315008  0.21670416    -0.70300
O800        O  0.95342319  0.49506301  0.20230311    -0.70600
O801        O  0.50202229  0.04710421  0.21307665    -0.70400
O802        O  0.00090939  0.44443205  0.20579392    -0.70400
O803        O  0.48773380  0.44194989  0.26253730    -0.70400
O804        O  0.99673440  0.03972051  0.27658952    -0.70400
O805        O  0.94506212  0.48716304  0.26592011    -0.70300
O806        O  0.53854975  0.48624019  0.28005275    -0.70500
V807        V  0.50042282  0.49656709  0.20782035     1.35200
V808        V  0.99344897  0.48948856  0.27366974     1.35200
C809        C  0.56016734  0.48705698  0.25164108     0.78900
C810        C  0.93279731  0.48984291  0.23102136     0.79000
C811        C  0.99237113  0.05826938  0.24599264     0.78800
C812        C  0.99692642  0.42576298  0.23620409     0.78800
N813        N  0.48854732  0.21624725  0.03367818    -0.35200
N814        N  0.50530451  0.21629288  0.44708142    -0.55700
N815        N  0.51807535  0.29069204  0.44812116    -0.35200
N816        N  0.49193679  0.28963305  0.03598097    -0.55700
C817        C  0.47614294  0.18500671  0.02283759     0.28400
C818        C  0.47623463  0.22370031  0.07073368     0.28400
C819        C  0.52160417  0.28384727  0.40831051     0.28400
C820        C  0.52800888  0.32364996  0.45505923     0.28400
C821        C  0.51419938  0.18402737  0.45753894     0.37000
C822        C  0.52120636  0.22213387  0.41208336     0.37000
C823        C  0.49692781  0.28331145  0.07545114     0.37000
C824        C  0.49658695  0.32384139  0.03060608     0.37000
C825        C  0.45446380  0.17305231  0.05263702    -0.20400
C826        C  0.45477881  0.19742708  0.08313186    -0.20400
C827        C  0.53506416  0.31262396  0.38979576    -0.20400
C828        C  0.53875777  0.33777473  0.41910851    -0.20400
C829        C  0.53661412  0.16931738  0.42962211    -0.21500
C830        C  0.54200354  0.19419516  0.40114081    -0.21500
C831        C  0.50725756  0.31343272  0.09463834    -0.21500
C832        C  0.50492129  0.33936089  0.06698265    -0.21500
C833        C  0.49966559  0.16781488  0.49064123    -0.16900
C834        C  0.48681563  0.25217218  0.09449260    -0.16900
C835        C  0.52932933  0.34077926  0.49313742    -0.16800
C836        C  0.51424265  0.25152857  0.38925230    -0.16800
H837        H  0.44073397  0.14884099  0.05297819     0.16100
H838        H  0.44140603  0.19567852  0.11152603     0.16100
H839        H  0.54239119  0.31498370  0.35864928     0.16100
H840        H  0.54959634  0.36309331  0.41460324     0.16100
H841        H  0.54778024  0.14357580  0.42984312     0.14300
H842        H  0.55778863  0.19150598  0.37445877     0.14300
H843        H  0.51398670  0.31702835  0.12583815     0.14300
H844        H  0.50985864  0.36625053  0.07341635     0.15500
H845        H  0.50815289  0.22938770  0.01891059     0.27600
H846        H  0.50670526  0.27460308  0.46880612     0.27600
N847        N  0.99147866  0.27979373  0.29444216    -0.35200
N848        N  0.00495871  0.20566840  0.29169848    -0.55700
N849        N  0.99931433  0.20801847  0.20502504    -0.35200
N850        N  0.98402622  0.28084505  0.20815122    -0.55700
C851        C  0.98655632  0.27115267  0.33321883     0.28400
C852        C  0.97553919  0.31074274  0.28920175     0.28400
C853        C  0.01446805  0.17684469  0.21114327     0.28400
C854        C  0.00686072  0.21753611  0.16706839     0.28400
C855        C  0.99895115  0.20987007  0.33140793     0.37000
C856        C  0.00076074  0.17169147  0.28301955     0.37000
C857        C  0.97314320  0.31341626  0.21588505     0.37000
C858        C  0.97742692  0.27450961  0.16908949     0.37000
C859        C  0.96527572  0.29563535  0.35171150    -0.20400
C860        C  0.95930627  0.32117508  0.32436185    -0.20400
C861        C  0.03225213  0.16652288  0.17687277    -0.20400
C862        C  0.02786016  0.19241017  0.14926427    -0.20400
C863        C  0.98847383  0.17877159  0.34737903    -0.21500
C864        C  0.99106909  0.15435664  0.31728782    -0.21500
C865        C  0.95794127  0.32743150  0.18217771    -0.21500
C866        C  0.95992099  0.30239260  0.15265803    -0.21500
C867        C  0.00126286  0.24198122  0.35238692    -0.16900
C868        C  0.97543691  0.32996353  0.25360450    -0.16900
C869        C  0.99246940  0.24666896  0.14725621    -0.16800
C870        C  0.00904114  0.15635771  0.24537103    -0.16800
H871        H  0.95529832  0.29531474  0.38201335     0.16100
H872        H  0.94361458  0.34408068  0.32949458     0.16100
H873        H  0.04647400  0.14264648  0.17192485     0.16100
H874        H  0.03809599  0.19216854  0.11906711     0.16100
H875        H  0.97949058  0.17400058  0.37749308     0.14300
H876        H  0.98626356  0.12712812  0.32082672     0.14300
H877        H  0.94612369  0.35274416  0.17940423     0.14300
H878        H  0.95113918  0.30513305  0.12207805     0.14300
H879        H  0.00815981  0.26740626  0.27422110     0.27600
H880        H  0.98115225  0.21978393  0.22399626     0.27600
N881        N  0.78530873  0.00062219  0.05062675    -0.35200
N882        N  0.79293662  0.50586856  0.45211709    -0.55700
N883        N  0.71641337  0.02648840  0.46402155    -0.35200
N884        N  0.71163288  0.01194733  0.05169791    -0.55700
C885        C  0.81473951  0.98489407  0.03829891     0.28400
C886        C  0.77558884  0.98626986  0.08570495     0.28400
C887        C  0.72137481  0.02951480  0.42415226     0.28400
C888        C  0.68401904  0.03767517  0.47279842     0.28400
C889        C  0.82715093  0.51174593  0.45719661     0.37000
C890        C  0.78665905  0.50688168  0.41212428     0.37000
C891        C  0.72261135  0.01959613  0.08913566     0.37000
C892        C  0.68320011  0.03136963  0.04536196     0.37000
C893        C  0.82384288  0.95947500  0.06521214    -0.20400
C894        C  0.79892604  0.96000537  0.09495789    -0.20400
C895        C  0.69216969  0.04473837  0.40749184    -0.20400
C896        C  0.66834995  0.04921780  0.43806682    -0.20400
C897        C  0.84216999  0.51852241  0.42036984    -0.21500
C898        C  0.81642813  0.51654305  0.39225619    -0.21500
C899        C  0.70246713  0.04583650  0.10579253    -0.21500
C900        C  0.67666037  0.05250375  0.07846204    -0.21500
C901        C  0.84497306  0.51163100  0.49451154    -0.16900
C902        C  0.74705817  0.99869082  0.10904586    -0.16900
C903        C  0.66965270  0.04045751  0.51189869    -0.16800
C904        C  0.75369521  0.50168316  0.39403077    -0.16800
H905        H  0.84585980  0.94208189  0.06336337     0.16100
H906        H  0.79833873  0.94251290  0.11987077     0.16100
H907        H  0.70063328  0.54936761  0.36986341     0.16100
H908        H  0.64318115  0.06138162  0.43541767     0.16100
H909        H  0.86855713  0.52549903  0.41405972     0.14300
H910        H  0.81930141  0.52252384  0.36085925     0.14300
H911        H  0.70481853  0.05723045  0.13544616     0.14300
H912        H  0.65577104  0.07099379  0.08244665     0.14300
H913        H  0.77439170  0.02247861  0.03739118     0.27600
H914        H  0.73354063  0.01465665  0.48347401     0.27600
N915        N  0.78840529  0.48643265  0.20302734    -0.35200
N916        N  0.71323210  0.49018736  0.20290493    -0.55700
N917        N  0.71146600  0.49052239  0.29053754    -0.35200
N918        N  0.78619153  0.48099685  0.29040516    -0.55700
C919        C  0.78143809  0.48139405  0.16365332     0.28400
C920        C  0.81955614  0.47156877  0.21010268     0.28400
C921        C  0.67706476  0.48755283  0.28361750     0.28400
C922        C  0.71702766  0.48731341  0.33046630     0.28400
C923        C  0.71921586  0.48639075  0.16303823     0.37000
C924        C  0.67896631  0.48528308  0.20849699     0.37000
C925        C  0.81779957  0.46705963  0.28369509     0.37000
C926        C  0.77845417  0.47485444  0.32916186     0.37000
C927        C  0.80754547  0.46155057  0.14615962    -0.20400
C928        C  0.83196135  0.45597263  0.17530418    -0.20400
C929        C  0.66059509  0.48222416  0.31999237    -0.20400
C930        C  0.68583141  0.48019346  0.34884257    -0.20400
C931        C  0.68929273  0.47566143  0.14404284    -0.21500
C932        C  0.66363566  0.47627285  0.17239476    -0.21500
C933        C  0.82930437  0.45019514  0.31766652    -0.21500
C934        C  0.80385840  0.45428544  0.34606862    -0.21500
C935        C  0.75129738  0.49308510  0.14376856    -0.16900
C936        C  0.83647267  0.46987937  0.24751794    -0.16900
C937        C  0.74987955  0.48971162  0.34987696    -0.16800
C938        C  0.66068046  0.48887159  0.24529475    -0.16800
H939        H  0.80855114  0.45150578  0.11575960     0.16100
H940        H  0.85541644  0.44077042  0.17183048     0.16100
H941        H  0.63349183  0.47927957  0.32612627     0.16100
H942        H  0.68138488  0.47385751  0.37988569     0.16100
H943        H  0.68607101  0.46860063  0.11280242     0.14300
H944        H  0.63683270  0.46993582  0.16719633     0.14300
H945        H  0.85296436  0.43556924  0.32154461     0.14300
H946        H  0.80443057  0.44420865  0.37617028     0.14300
H947        H  0.77428867  0.50213170  0.22279719     0.27600
H948        H  0.72983414  0.49792165  0.26988077     0.27600
C949        C  0.59711551  0.47903952  0.25910649    -0.15000
C950        C  0.62266282  0.49653776  0.24142748    -0.30200
H951        H  0.60294958  0.45746761  0.27840063     0.14000
H952        H  0.61060669  0.01859161  0.28916505     0.14600
C953        C  0.89529107  0.48669251  0.22407437    -0.15000
C954        C  0.87510748  0.46878335  0.24929700    -0.30200
H955        H  0.88420779  0.49972554  0.19843857     0.14000
H956        H  0.87470727  0.02136720  0.21241447     0.14600
C957        C  0.99401282  0.38795039  0.23128546    -0.15000
C958        C  0.97570809  0.36855652  0.25683068    -0.30200
H959        H  0.00656183  0.37596597  0.20542434     0.14000
H960        H  0.45544580  0.38504072  0.27219732     0.14600
C961        C  0.98814500  0.09603227  0.24999188    -0.15000
C962        C  0.01371331  0.11804097  0.24148563    -0.30200
H963        H  0.96330127  0.10591890  0.26032524     0.14000
H964        H  0.53475024  0.11255897  0.22053195     0.14600
C965        C  0.60990183  0.02107669  0.49627438    -0.15000
C966        C  0.63124966  0.04060488  0.51887341    -0.30200
H967        H  0.62003555  0.00769718  0.46993492     0.14000
H968        H  0.61389897  0.55033555  0.02522163     0.14600
C969        C  0.90547989  0.99682102  0.51965544    -0.15000
C970        C  0.88394957  0.51137827  0.49389164    -0.30200
H971        H  0.88127611  0.99689055  0.06466330     0.14000
H972        H  0.89731923  0.52609977  0.47131201     0.14600
C973        C  0.51245388  0.40028268  0.47203078    -0.15000
C974        C  0.53192521  0.37937464  0.49502437    -0.30200
H975        H  0.53493082  0.39225133  0.02094230     0.14000
H976        H  0.98247333  0.37989916  0.48540532     0.14600
C977        C  0.49623451  0.12976219  0.48929271    -0.15000
C978        C  0.50039075  0.11025474  0.52179215    -0.30200
H979        H  0.00149898  0.11131527  0.46264504     0.14000
H980        H  0.49926081  0.12083562  0.04765903     0.14600
O981        O  0.51707761  0.45090233  0.51329738    -0.70300
O982        O  0.00964776  0.04008623  0.54329010    -0.70600
O983        O  0.95810881  0.49024912  0.55191044    -0.70400
O984        O  0.56002107  0.01707510  0.53981960    -0.70400
O985        O  0.54672869  0.50146005  0.96794111    -0.70400
O986        O  0.94593686  0.99324242  0.99887707    -0.70400
O987        O  0.49221983  0.05402087  0.98474717    -0.70300
O988        O  0.99315589  0.45332247  0.95635703    -0.70500
V989        V  0.00694535  0.49658638  0.55214723     1.35200
V990        V  0.99462968  0.99895087  0.99725724     1.35200
C991        C  0.00036253  0.43299687  0.98469790     0.78900
C992        C  0.98843553  0.06520956  0.02811118     0.79000
C993        C  0.94343808  0.99543724  0.51266377     0.78800
C994        C  0.57264305  0.01613999  0.50467347     0.78800
O995        O  0.55245868  0.49777587  0.71599933    -0.70300
O996        O  0.95365541  0.49967388  0.70486274    -0.70600
O997        O  0.50247286  0.05004496  0.70446157    -0.70400
O998        O  0.99998398  0.44784480  0.70423061    -0.70400
O999        O  0.49741079  0.44703679  0.76517152    -0.70400
O1000       O  0.98682388  0.03891842  0.78557831    -0.70400
O1001       O  0.94640656  0.48803564  0.76783177    -0.70300
O1002       O  0.54324469  0.49827701  0.78025165    -0.70500
V1003       V  0.50366114  0.50087071  0.70819557     1.35200
V1004       V  0.99480541  0.49022843  0.77466618     1.35200
C1005       C  0.56437896  0.49732600  0.75134339     0.78900
C1006       C  0.93352359  0.49297944  0.73363858     0.79000
C1007       C  0.99242019  0.05854277  0.75625828     0.78800
C1008       C  0.99665947  0.42804032  0.73376981     0.78800
N1009       N  0.50339976  0.21821037  0.53421798    -0.35200
N1010       N  0.49157798  0.21528464  0.94601850    -0.55700
N1011       N  0.49425587  0.28962994  0.94818401    -0.35200
N1012       N  0.51641046  0.29097117  0.53564961    -0.55700
C1013       C  0.48879728  0.18786795  0.52396007     0.28400
C1014       C  0.49080601  0.22755388  0.57047652     0.28400
C1015       C  0.50308974  0.28350717  0.90933968     0.28400
C1016       C  0.50052950  0.32327716  0.95608178     0.28400
C1017       C  0.50144343  0.18314311  0.95583009     0.37000
C1018       C  0.50632229  0.22169969  0.91045983     0.37000
C1019       C  0.51951992  0.28379139  0.57511421     0.37000
C1020       C  0.52929556  0.32287935  0.53016408     0.37000
C1021       C  0.46560660  0.17825972  0.55337104    -0.20400
C1022       C  0.46703861  0.20334884  0.58302948    -0.20400
C1023       C  0.51705768  0.31320363  0.89335227    -0.20400
C1024       C  0.51430731  0.33859163  0.92238116    -0.20400
C1025       C  0.52358030  0.16921460  0.92710650    -0.21500
C1026       C  0.52763563  0.19437262  0.89874803    -0.21500
C1027       C  0.53582318  0.31077564  0.59471606    -0.21500
C1028       C  0.54125327  0.33582829  0.56659400    -0.21500
C1029       C  0.48790235  0.16605623  0.98889868    -0.16900
C1030       C  0.50358087  0.25524822  0.59377586    -0.16900
C1031       C  0.49518692  0.34068174  0.99301276    -0.16800
C1032       C  0.49890476  0.25155470  0.88846860    -0.16800
H1033       H  0.45003907  0.15520582  0.55394833     0.16100
H1034       H  0.45296412  0.20329222  0.61107683     0.16100
H1035       H  0.52802532  0.31632992  0.86378568     0.16100
H1036       H  0.52278882  0.36501834  0.91954453     0.16100
H1037       H  0.53554217  0.14382033  0.92678490     0.14300
H1038       H  0.54334930  0.19239148  0.87193933     0.14300
H1039       H  0.54194177  0.31286008  0.62627853     0.14300
H1040       H  0.55316441  0.36044932  0.57274405     0.15500
H1041       H  0.52444352  0.22923874  0.51974335     0.27600
H1042       H  0.48102374  0.27309819  0.96695258     0.27600
N1043       N  0.98670980  0.28303427  0.79388496    -0.35200
N1044       N  0.99793545  0.20834609  0.79359212    -0.55700
N1045       N  0.99806391  0.20844478  0.70699237    -0.35200
N1046       N  0.98621130  0.28225824  0.70697436    -0.55700
C1047       C  0.98087988  0.27589944  0.83287696     0.28400
C1048       C  0.97241478  0.31443237  0.78696169     0.28400
C1049       C  0.01198648  0.17718646  0.71580855     0.28400
C1050       C  0.00949826  0.21718668  0.67009943     0.28400
C1051       C  0.98814702  0.21426877  0.83193860     0.37000
C1052       C  0.99163913  0.17463084  0.78549699     0.37000
C1053       C  0.97424383  0.31479839  0.71308469     0.37000
C1054       C  0.98126013  0.27457442  0.66776800     0.37000
C1055       C  0.96104861  0.30206034  0.85027344    -0.20400
C1056       C  0.95634347  0.32674808  0.82158431    -0.20400
C1057       C  0.03286350  0.16603553  0.68430870    -0.20400
C1058       C  0.03182363  0.19154205  0.65586381    -0.20400
C1059       C  0.97295752  0.18507766  0.84722640    -0.21500
C1060       C  0.97676070  0.15950911  0.81877658    -0.21500
C1061       C  0.96019302  0.32747453  0.67804033    -0.21500
C1062       C  0.96375960  0.30162032  0.64957691    -0.21500
C1063       C  0.99264704  0.24597642  0.85275660    -0.16900
C1064       C  0.97399278  0.33244415  0.75045975    -0.16900
C1065       C  0.99725143  0.24593977  0.64780796    -0.16800
C1066       C  0.00321569  0.15767540  0.74996920    -0.16800
H1067       H  0.95079891  0.30315299  0.88046244     0.16100
H1068       H  0.94155575  0.35037240  0.82567093     0.16100
H1069       H  0.04715723  0.14197455  0.68163811     0.16100
H1070       H  0.04519539  0.19066818  0.62736907     0.16100
H1071       H  0.96090879  0.18217220  0.87624619     0.14300
H1072       H  0.96955211  0.13308620  0.82347443     0.14300
H1073       H  0.94777708  0.35232834  0.67376687     0.14300
H1074       H  0.95579067  0.30322129  0.61858400     0.14300
H1075       H  0.00299846  0.26910155  0.77464621     0.27600
H1076       H  0.97845867  0.22093754  0.72320859     0.27600
N1077       N  0.79596539  0.01088976  0.54876553    -0.35200
N1078       N  0.78507635  0.51063947  0.95172431    -0.55700
N1079       N  0.70895341  0.01136373  0.96376543    -0.35200
N1080       N  0.71995388  0.02434740  0.55144002    -0.55700
C1081       C  0.82994699  0.01571140  0.54119003     0.28400
C1082       C  0.79091271  0.01430987  0.58881858     0.28400
C1083       C  0.71461187  0.01466356  0.92381807     0.28400
C1084       C  0.67687848  0.02386926  0.97218410     0.28400
C1085       C  0.81847489  0.52003895  0.95647365     0.37000
C1086       C  0.77738035  0.51450240  0.91235998     0.37000
C1087       C  0.73229193  0.03358235  0.58773253     0.37000
C1088       C  0.69138476  0.04383303  0.54544881     0.37000
C1089       C  0.84663333  0.02303640  0.57707923    -0.20400
C1090       C  0.82198695  0.02264238  0.60692369    -0.20400
C1091       C  0.68605370  0.03096175  0.90709147    -0.20400
C1092       C  0.66204292  0.03591067  0.93724725    -0.20400
C1093       C  0.83127088  0.53184100  0.92025610    -0.21500
C1094       C  0.80496376  0.52945829  0.89290019    -0.21500
C1095       C  0.71279770  0.06061877  0.60388143    -0.21500
C1096       C  0.68601693  0.06632145  0.57751353    -0.21500
C1097       C  0.83778998  0.51756541  0.99267607    -0.16900
C1098       C  0.75804914  0.01459116  0.60793086    -0.16900
C1099       C  0.66216674  0.02837163  0.01107371    -0.16800
C1100       C  0.74609065  0.50370446  0.89366430    -0.16800
H1101       H  0.87315556  0.03084469  0.58117336     0.16100
H1102       H  0.82615332  0.02996807  0.63793245     0.16100
H1103       H  0.68309891  0.53697218  0.86716839     0.16100
H1104       H  0.63754447  0.04932398  0.93429767     0.16100
H1105       H  0.85658014  0.54185289  0.91376291     0.14300
H1106       H  0.80630794  0.53708497  0.86184683     0.14300
H1107       H  0.71628168  0.07311723  0.63277757     0.14300
H1108       H  0.66529902  0.08505631  0.58123886     0.14300
H1109       H  0.77718696  0.00394604  0.52811680     0.27600
H1110       H  0.72519447  0.99886613  0.98382782     0.27600
N1111       N  0.79003178  0.48693385  0.70417265    -0.35200
N1112       N  0.71544812  0.48550408  0.70031826    -0.55700
N1113       N  0.71049755  0.48838695  0.78804133    -0.35200
N1114       N  0.78488319  0.48104381  0.79153795    -0.55700
C1115       C  0.78510289  0.48265860  0.66424313     0.28400
C1116       C  0.82125234  0.47294280  0.71271815     0.28400
C1117       C  0.67788741  0.47840224  0.77895276     0.28400
C1118       C  0.71514757  0.48395377  0.82799754     0.28400
C1119       C  0.72323455  0.48286849  0.66074287     0.37000
C1120       C  0.68196358  0.47624419  0.70411690     0.37000
C1121       C  0.81847685  0.47164196  0.78711777     0.37000
C1122       C  0.77746953  0.47875442  0.83112787     0.37000
C1123       C  0.81253421  0.46408415  0.64777622    -0.20400
C1124       C  0.83566107  0.45853624  0.67821610    -0.20400
C1125       C  0.66202503  0.46662246  0.81342374    -0.20400
C1126       C  0.68575061  0.46926907  0.84398652    -0.20400
C1127       C  0.69569427  0.46884171  0.64003177    -0.21500
C1128       C  0.66930210  0.46568637  0.66702360    -0.21500
C1129       C  0.83170975  0.46113797  0.82367095    -0.21500
C1130       C  0.80539364  0.46432976  0.85102425    -0.21500
C1131       C  0.75507859  0.49279146  0.64322743    -0.16900
C1132       C  0.83738867  0.47262127  0.75069056    -0.16900
C1133       C  0.74620823  0.49077376  0.84946146    -0.16800
C1134       C  0.66238754  0.47776064  0.74022094    -0.16800
H1135       H  0.81522080  0.45465200  0.61725064     0.16100
H1136       H  0.85985865  0.44443929  0.67556160     0.16100
H1137       H  0.63656346  0.45556928  0.81596726     0.16100
H1138       H  0.68202802  0.46045765  0.87431851     0.16100
H1139       H  0.69457711  0.46182191  0.60856525     0.14300
H1140       H  0.64405598  0.45589082  0.65962938     0.14300
H1141       H  0.85724839  0.45131703  0.83032201     0.14300
H1142       H  0.80699244  0.45748659  0.88231133     0.14300
H1143       H  0.77449510  0.50165363  0.72345139     0.27600
H1144       H  0.72766335  0.50056251  0.76899842     0.27600
C1145       C  0.60204536  0.49615458  0.75903100    -0.15000
C1146       C  0.62366015  0.47641292  0.73655968    -0.30200
H1147       H  0.61200884  0.51165474  0.78369568     0.14000
H1148       H  0.61196561  0.01534208  0.77985670     0.14600
C1149       C  0.89588750  0.49069870  0.72771854    -0.15000
C1150       C  0.87602197  0.47195710  0.75250127    -0.30200
H1151       H  0.88443187  0.50488454  0.70313672     0.14000
H1152       H  0.88668532  0.95854232  0.78043536     0.14600
C1153       C  0.99270596  0.39045474  0.72729744    -0.15000
C1154       C  0.97400474  0.37113668  0.75250687    -0.30200
H1155       H  0.00530628  0.37865441  0.70138242     0.14000
H1156       H  0.45767691  0.38951463  0.76768554     0.14600
C1157       C  0.98609513  0.09606998  0.75971322    -0.15000
C1158       C  0.00974864  0.11942095  0.74891495    -0.30200
H1159       H  0.96051814  0.10427407  0.76924980     0.14000
H1160       H  0.54206408  0.11700822  0.72579337     0.14600
C1161       C  0.60126945  0.01326997  0.99469009    -0.15000
C1162       C  0.62377226  0.03159941  0.01694338    -0.30200
H1163       H  0.61046762  0.99828444  0.96903430     0.14000
H1164       H  0.61758464  0.54029989  0.52469733     0.14600
C1165       C  0.89257599  0.99287125  0.03516590    -0.15000
C1166       C  0.87653038  0.51890072  0.98998387    -0.30200
H1167       H  0.89520271  0.98129828  0.54366683     0.14000
H1168       H  0.88829442  0.53439462  0.96695647     0.14600
C1169       C  0.51185112  0.40138371  0.00581063    -0.15000
C1170       C  0.48941086  0.37868653  0.99093935    -0.30200
H1171       H  0.49646691  0.38951681  0.44835400     0.14000
H1172       H  0.03299640  0.38624489  0.02771838     0.14600
C1173       C  0.48632282  0.12783738  0.98706186    -0.15000
C1174       C  0.49297125  0.10858775  0.01915998    -0.30200
H1175       H  0.98089131  0.11036103  0.96786762     0.14000
H1176       H  0.50540688  0.12210162  0.55085067     0.14600
O1177       O  0.51185479  0.95804556  0.04800927    -0.70300
O1178       O  0.00359543  0.54227390  0.03754842    -0.70600
O1179       O  0.94856942  0.99457019  0.06391989    -0.70400
O1180       O  0.55342118  0.50935445  0.03205685    -0.70400
O1181       O  0.55254803  0.00971518  0.47579268    -0.70400
O1182       O  0.95858559  0.49629344  0.48728323    -0.70400
O1183       O  0.50449296  0.55549778  0.46834898    -0.70300
O1184       O  0.00281341  0.95145909  0.46107689    -0.70500
V1185       V  0.99705452  0.00076405  0.05977119     1.35200
V1186       V  0.00776639  0.49903586  0.48970599     1.35200
C1187       C  0.01100746  0.93101324  0.48889829     0.78900
C1188       C  0.00139979  0.56311557  0.52537233     0.79000
C1189       C  0.93557457  0.49907831  0.00714562     0.78800
C1190       C  0.56663303  0.50597266  0.99734991     0.78800
O1191       O  0.54614559  0.99198579  0.20966709    -0.70300
O1192       O  0.94449984  0.99114055  0.21144389    -0.70600
O1193       O  0.50201387  0.54573514  0.21392337    -0.70400
O1194       O  0.99740570  0.94581748  0.20220164    -0.70400
O1195       O  0.49441945  0.94311337  0.26199414    -0.70400
O1196       O  0.99020556  0.53855381  0.27902007    -0.70400
O1197       O  0.94923634  0.98929952  0.27630664    -0.70300
O1198       O  0.54207911  0.99259366  0.27465746    -0.70500
V1199       V  0.49752076  0.99832019  0.20671224     1.35200
V1200       V  0.99776320  0.99058008  0.27069785     1.35200
C1201       C  0.56056684  0.98965410  0.24352211     0.78900
C1202       C  0.93037915  0.98852157  0.24554728     0.79000
C1203       C  0.99574244  0.55730096  0.24893191     0.78800
C1204       C  0.99783291  0.92704546  0.23288117     0.78800
N1205       N  0.50114898  0.71567989  0.03312873    -0.35200
N1206       N  0.50829579  0.71669745  0.44642888    -0.55700
N1207       N  0.50621197  0.79158359  0.44803376    -0.35200
N1208       N  0.50796937  0.78928636  0.03710659    -0.55700
C1209       C  0.48896548  0.68449723  0.02165597     0.28400
C1210       C  0.48827394  0.72292177  0.06997771     0.28400
C1211       C  0.51182491  0.78557723  0.40832672     0.28400
C1212       C  0.51215448  0.82551127  0.45560964     0.28400
C1213       C  0.51876248  0.68434099  0.45438885     0.37000
C1214       C  0.52046289  0.72396863  0.40987127     0.37000
C1215       C  0.51189437  0.78157510  0.07637402     0.37000
C1216       C  0.51531741  0.82314784  0.03279901     0.37000
C1217       C  0.46704249  0.67215834  0.05097297    -0.20400
C1218       C  0.46663368  0.69647106  0.08158107    -0.20400
C1219       C  0.52272802  0.81593496  0.39085817    -0.20400
C1220       C  0.52206617  0.84121056  0.42033507    -0.20400
C1221       C  0.53906147  0.67119955  0.42339979    -0.21500
C1222       C  0.54103128  0.69698787  0.39545845    -0.21500
C1223       C  0.52439903  0.81016961  0.09675125    -0.21500
C1224       C  0.52501382  0.83676199  0.06984365    -0.21500
C1225       C  0.50559539  0.66590296  0.48672144    -0.16900
C1226       C  0.49861285  0.75118516  0.09435143    -0.16900
C1227       C  0.51074655  0.84270466  0.49354311    -0.16800
C1228       C  0.50893920  0.75280498  0.38837166    -0.16800
H1229       H  0.45313854  0.64804610  0.05069367     0.16100
H1230       H  0.45266312  0.69449886  0.10956216     0.16100
H1231       H  0.53118409  0.81941085  0.36026767     0.16100
H1232       H  0.52974894  0.86779645  0.41662968     0.16100
H1233       H  0.55036249  0.64557664  0.42078396     0.14300
H1234       H  0.55406683  0.69528365  0.36676407     0.14300
H1235       H  0.53029663  0.81248575  0.12834631     0.14300
H1236       H  0.53184478  0.86278515  0.07794333     0.15500
H1237       H  0.52072077  0.72900985  0.01858342     0.27600
H1238       H  0.49565034  0.77417994  0.46791289     0.27600
N1239       N  0.99696858  0.78039786  0.29388580    -0.35200
N1240       N  0.00819284  0.70597603  0.29169191    -0.55700
N1241       N  0.00676789  0.70791029  0.20433925    -0.35200
N1242       N  0.99492094  0.78132110  0.20650992    -0.55700
C1243       C  0.99210130  0.77275260  0.33298305     0.28400
C1244       C  0.98261792  0.81198994  0.28800340     0.28400
C1245       C  0.02069698  0.67645666  0.21212217     0.28400
C1246       C  0.01768331  0.71726329  0.16737831     0.28400
C1247       C  0.00047637  0.71089820  0.33098249     0.37000
C1248       C  0.00245385  0.67221795  0.28280276     0.37000
C1249       C  0.98250596  0.81346878  0.21385846     0.37000
C1250       C  0.98999516  0.77482310  0.16701802     0.37000
C1251       C  0.97267563  0.79872582  0.35135264    -0.20400
C1252       C  0.96761835  0.82392518  0.32341730    -0.20400
C1253       C  0.04110279  0.66584862  0.17994900    -0.20400
C1254       C  0.03964569  0.69181017  0.15205963    -0.20400
C1255       C  0.98708758  0.68072197  0.34623490    -0.21500
C1256       C  0.99000931  0.65588166  0.31660781    -0.21500
C1257       C  0.96825260  0.82696746  0.17927890    -0.21500
C1258       C  0.97249014  0.80224720  0.14972402    -0.21500
C1259       C  0.00458881  0.74276711  0.35234242    -0.16900
C1260       C  0.98267457  0.83041192  0.25165876    -0.16900
C1261       C  0.00552878  0.74662202  0.14608385    -0.16800
C1262       C  0.01217648  0.65617296  0.24578290    -0.16800
H1263       H  0.96300691  0.79946569  0.38180282     0.16100
H1264       H  0.95313668  0.84757431  0.32859344     0.16100
H1265       H  0.05541341  0.64185863  0.17654032     0.16100
H1266       H  0.05256644  0.69145357  0.12327875     0.16100
H1267       H  0.97652097  0.67673291  0.37582742     0.14300
H1268       H  0.98391418  0.62902446  0.32060315     0.14300
H1269       H  0.95546361  0.85174448  0.17588969     0.14300
H1270       H  0.96464113  0.80471650  0.11877669     0.14300
H1271       H  0.01258493  0.76666034  0.27374270     0.27600
H1272       H  0.98745381  0.72009128  0.22132342     0.27600
N1273       N  0.78944355  0.50591474  0.03935957    -0.35200
N1274       N  0.79315929  0.01451284  0.46019398    -0.55700
N1275       N  0.71751575  0.50943601  0.45400260    -0.35200
N1276       N  0.71530094  0.51565939  0.04205121    -0.55700
C1277       C  0.82204763  0.51608540  0.03116288     0.28400
C1278       C  0.78447235  0.50972185  0.07943776     0.28400
C1279       C  0.72523590  0.51593163  0.41529284     0.28400
C1280       C  0.68695247  0.52546644  0.46188716     0.28400
C1281       C  0.82503765  0.02690469  0.46852603     0.37000
C1282       C  0.78330790  0.02864871  0.42496294     0.37000
C1283       C  0.72319530  0.51951061  0.08131468     0.37000
C1284       C  0.68319373  0.52900317  0.03750984     0.37000
C1285       C  0.83764166  0.52716240  0.06644489    -0.20400
C1286       C  0.81385332  0.52359563  0.09667901    -0.20400
C1287       C  0.70082255  0.53837524  0.39952754    -0.20400
C1288       C  0.67595548  0.54337563  0.42852893    -0.20400
C1289       C  0.83481155  0.04990265  0.43911692    -0.21500
C1290       C  0.80778530  0.05202383  0.41242529    -0.21500
C1291       C  0.69753497  0.53842835  0.10078627    -0.21500
C1292       C  0.67161997  0.54325000  0.07350743    -0.21500
C1293       C  0.84529019  0.01820735  0.50254793    -0.16900
C1294       C  0.75268937  0.50477244  0.09978986    -0.16900
C1295       C  0.66911037  0.52556888  0.49880602    -0.16800
C1296       C  0.75258551  0.02026012  0.40386484    -0.16800
H1297       H  0.86290241  0.53854158  0.06984258     0.16100
H1298       H  0.81726075  0.53200811  0.12745776     0.16100
H1299       H  0.68866630  0.05277584  0.37681811     0.16100
H1300       H  0.65299804  0.55936255  0.42592392     0.16100
H1301       H  0.85826590  0.06478683  0.43776230     0.14300
H1302       H  0.80672925  0.06783394  0.38592384     0.14300
H1303       H  0.69700629  0.54685420  0.13183366     0.14300
H1304       H  0.64727900  0.55614494  0.07974114     0.14300
H1305       H  0.77229495  0.49437356  0.01947377     0.27600
H1306       H  0.73050115  0.49201672  0.47233556     0.27600
N1307       N  0.79671019  0.99547943  0.18598797    -0.35200
N1308       N  0.70613776  0.99243916  0.21302899    -0.55700
N1309       N  0.71246216  0.00475420  0.30074236    -0.35200
N1310       N  0.78637638  0.00461978  0.29638925    -0.55700
C1311       C  0.76884822  0.97644413  0.17606204     0.28400
C1312       C  0.80965811  0.98096151  0.21944255     0.28400
C1313       C  0.67950758  0.99350759  0.29604567     0.28400
C1314       C  0.72158010  0.99905342  0.33961068     0.28400
C1315       C  0.70893399  0.99033425  0.17246506     0.37000
C1316       C  0.67241345  0.99704596  0.22175257     0.37000
C1317       C  0.82022581  0.00157758  0.28639409     0.37000
C1318       C  0.78447943  0.00547574  0.33680903     0.37000
C1319       C  0.76568308  0.94865707  0.20161535    -0.20400
C1320       C  0.79131033  0.95178052  0.22936608    -0.20400
C1321       C  0.66813811  0.97940766  0.33157303    -0.20400
C1322       C  0.69490350  0.98187546  0.35850221    -0.20400
C1323       C  0.67649237  0.99186470  0.15542257    -0.21500
C1324       C  0.65367675  0.99820263  0.18619768    -0.21500
C1325       C  0.84021433  0.99994181  0.32050901    -0.21500
C1326       C  0.81743705  0.99968247  0.35201748    -0.21500
C1327       C  0.74143605  0.98842575  0.15249813    -0.16900
C1328       C  0.83166814  0.99750121  0.24634568    -0.16900
C1329       C  0.75293223  0.00973779  0.35886967    -0.16800
C1330       C  0.65854983  0.99678844  0.26128433    -0.16800
H1331       H  0.74482732  0.93023805  0.20240880     0.16100
H1332       H  0.79448598  0.93617279  0.25583109     0.16100
H1333       H  0.64322466  0.96799758  0.33728818     0.16100
H1334       H  0.69450054  0.97253648  0.38892542     0.16100
H1335       H  0.66962075  0.98877656  0.12421266     0.14300
H1336       H  0.62634585  0.00248386  0.18198623     0.14300
H1337       H  0.86780287  0.99643160  0.32305584     0.14300
H1338       H  0.82485782  0.99342491  0.38221617     0.14300
H1339       H  0.80294686  0.01972120  0.17475477     0.27600
H1340       H  0.72621025  0.01902517  0.27986464     0.27600
C1341       C  0.59768530  0.98133360  0.24552161    -0.15000
C1342       C  0.62023793  0.99968919  0.26741702    -0.30200
H1343       H  0.60718084  0.96161160  0.22474067     0.14000
H1344       H  0.61545110  0.51667447  0.22051938     0.14600
C1345       C  0.89323504  0.98241656  0.25069093    -0.15000
C1346       C  0.86831273  0.00197174  0.23437770    -0.30200
H1347       H  0.88623641  0.96266522  0.27196835     0.14000
H1348       H  0.88749274  0.45651345  0.27459575     0.14600
C1349       C  0.99798718  0.88917510  0.22847736    -0.15000
C1350       C  0.98055811  0.86901384  0.25392510    -0.30200
H1351       H  0.01212626  0.87784343  0.20335690     0.14000
H1352       H  0.46115840  0.88527448  0.27254502     0.14600
C1353       C  0.99141249  0.59528248  0.25220620    -0.15000
C1354       C  0.01636468  0.61757824  0.24213097    -0.30200
H1355       H  0.96689213  0.60493812  0.26369375     0.14000
H1356       H  0.53474529  0.61220686  0.22428074     0.14600
C1357       C  0.61038691  0.51052213  0.47311897    -0.15000
C1358       C  0.63041580  0.52774731  0.49949767    -0.30200
H1359       H  0.62174175  0.49771868  0.44703944     0.14000
H1360       H  0.61379321  0.04561263  0.04292791     0.14600
C1361       C  0.90322779  0.49253850  0.51956391    -0.15000
C1362       C  0.88408934  0.01706995  0.49773463    -0.30200
H1363       H  0.88715659  0.48374841  0.03665847     0.14000
H1364       H  0.89551729  0.03137429  0.47340967     0.14600
C1365       C  0.52525839  0.90446367  0.51203374    -0.15000
C1366       C  0.50539601  0.88127358  0.49283201    -0.30200
H1367       H  0.54346397  0.89778689  0.03169404     0.14000
H1368       H  0.04879781  0.88406572  0.52648495     0.14600
C1369       C  0.50194357  0.62797884  0.48139457    -0.15000
C1370       C  0.50734332  0.60547144  0.51094672    -0.30200
H1371       H  0.99686070  0.60947091  0.46734150     0.14000
H1372       H  0.50814076  0.61796284  0.04304533     0.14600
O1373       O  0.52194439  0.95907654  0.54514320    -0.70300
O1374       O  0.00036520  0.54506225  0.55657123    -0.70600
O1375       O  0.96418411  0.98779470  0.54067240    -0.70400
O1376       O  0.56049422  0.50482189  0.51473186    -0.70400
O1377       O  0.54293320  0.00674570  0.97511208    -0.70400
O1378       O  0.94835075  0.50553863  0.97324941    -0.70400
O1379       O  0.50086596  0.55377026  0.97627965    -0.70300
O1380       O  0.00176853  0.94982371  0.99690554    -0.70500
V1381       V  0.01288643  0.99214256  0.53189543     1.35200
V1382       V  0.99681099  0.50203460  0.96565915     1.35200
C1383       C  0.00577421  0.93432866  0.02988235     0.78900
C1384       C  0.00357321  0.56297079  0.00871805     0.79000
C1385       C  0.94155632  0.49288383  0.51938112     0.78800
C1386       C  0.57275760  0.50729518  0.47969774     0.78800
O1387       O  0.54644962  0.99481732  0.69711599    -0.70300
O1388       O  0.95302259  0.99676260  0.70700478    -0.70600
O1389       O  0.50512463  0.54999359  0.71300354    -0.70400
O1390       O  0.00230700  0.94761144  0.70884489    -0.70400
O1391       O  0.49710947  0.94629529  0.75504957    -0.70400
O1392       O  0.99124171  0.53904113  0.78264689    -0.70400
O1393       O  0.94456529  0.98579388  0.76990069    -0.70300
O1394       O  0.54674427  0.99468996  0.76224213    -0.70500
V1395       V  0.49761997  0.00113813  0.69897450     1.35200
V1396       V  0.99260613  0.99019519  0.77858854     1.35200
C1397       C  0.56316975  0.99239929  0.72953583     0.78900
C1398       C  0.93230139  0.98978235  0.73521595     0.79000
C1399       C  0.99680618  0.55897385  0.75363628     0.78800
C1400       C  0.99909625  0.92797318  0.73843585     0.78800
N1401       N  0.50423150  0.71565561  0.53249107    -0.35200
N1402       N  0.49955510  0.71703942  0.94534547    -0.55700
N1403       N  0.50529805  0.79180098  0.94940310    -0.35200
N1404       N  0.50621066  0.79057986  0.53492014    -0.55700
C1405       C  0.49341817  0.68382832  0.52125484     0.28400
C1406       C  0.48988384  0.72322388  0.56851606     0.28400
C1407       C  0.50812099  0.78694131  0.90909065     0.28400
C1408       C  0.51259100  0.82519985  0.95776696     0.28400
C1409       C  0.51196135  0.68543034  0.95389565     0.37000
C1410       C  0.51310327  0.72528187  0.90966619     0.37000
C1411       C  0.51067500  0.78308175  0.57415040     0.37000
C1412       C  0.51268449  0.82467420  0.53056324     0.37000
C1413       C  0.47104383  0.67128834  0.54995033    -0.20400
C1414       C  0.46890456  0.69617601  0.57994254    -0.20400
C1415       C  0.51923587  0.81742284  0.89205183    -0.20400
C1416       C  0.52103225  0.84173610  0.92249398    -0.20400
C1417       C  0.53418962  0.67364748  0.92407492    -0.21500
C1418       C  0.53579067  0.69965019  0.89639218    -0.21500
C1419       C  0.52246738  0.81208064  0.59433225    -0.21500
C1420       C  0.52178538  0.83870090  0.56754656    -0.21500
C1421       C  0.50031686  0.66667385  0.98669469    -0.16900
C1422       C  0.49850889  0.75241876  0.59247532    -0.16900
C1423       C  0.51194282  0.84154310  0.99611333    -0.16800
C1424       C  0.50300193  0.75482078  0.88847749    -0.16800
H1425       H  0.45789365  0.64674957  0.54960445     0.16100
H1426       H  0.45415641  0.69429443  0.60738719     0.16100
H1427       H  0.52630587  0.82165692  0.86114049     0.16100
H1428       H  0.52901669  0.86828825  0.91929344     0.16100
H1429       H  0.54773416  0.64907359  0.92256033     0.14300
H1430       H  0.55064014  0.69923229  0.86887479     0.14300
H1431       H  0.52873290  0.81458583  0.62580612     0.14300
H1432       H  0.52753517  0.86503179  0.57557475     0.15500
H1433       H  0.52367393  0.72964246  0.51855227     0.27600
H1434       H  0.49553836  0.77427644  0.96963339     0.27600
N1435       N  0.99537219  0.78381372  0.79447454    -0.35200
N1436       N  0.00760114  0.70934809  0.79382159    -0.55700
N1437       N  0.00384285  0.70920409  0.70716793    -0.35200
N1438       N  0.99012734  0.78252348  0.70764083    -0.55700
C1439       C  0.99287552  0.77719711  0.83407704     0.28400
C1440       C  0.97993974  0.81483768  0.78848495     0.28400
C1441       C  0.01788465  0.67783720  0.71530277     0.28400
C1442       C  0.01424377  0.71790962  0.66979744     0.28400
C1443       C  0.00126108  0.71536551  0.83318032     0.37000
C1444       C  0.00172754  0.67534603  0.78660253     0.37000
C1445       C  0.97869463  0.81517519  0.71407613     0.37000
C1446       C  0.98685325  0.77592530  0.66795759     0.37000
C1447       C  0.97401854  0.80332576  0.85297914    -0.20400
C1448       C  0.96678304  0.82757897  0.82452866    -0.20400
C1449       C  0.03757737  0.66656618  0.68285635    -0.20400
C1450       C  0.03571103  0.69202597  0.65449210    -0.20400
C1451       C  0.98875140  0.68558382  0.85039007    -0.21500
C1452       C  0.99050009  0.65994819  0.82154168    -0.21500
C1453       C  0.96667324  0.82902730  0.67859066    -0.21500
C1454       C  0.97117962  0.80389149  0.64949889    -0.21500
C1455       C  0.00653303  0.74763822  0.85314905    -0.16900
C1456       C  0.97827033  0.83242942  0.75170602    -0.16900
C1457       C  0.00246812  0.74715636  0.64804870    -0.16800
C1458       C  0.01058760  0.65833940  0.74993980    -0.16800
H1459       H  0.96600094  0.80472246  0.88404443     0.16100
H1460       H  0.95235795  0.85124192  0.82991051     0.16100
H1461       H  0.05184266  0.64254351  0.67959545     0.16100
H1462       H  0.04820999  0.69112434  0.62547029     0.16100
H1463       H  0.97967891  0.68238391  0.88078463     0.14300
H1464       H  0.98459754  0.63319940  0.82669540     0.14300
H1465       H  0.95544284  0.85441563  0.67421852     0.14300
H1466       H  0.96498592  0.80652914  0.61807126     0.14300
H1467       H  0.01025410  0.76980843  0.77385436     0.27600
H1468       H  0.98496739  0.72179325  0.72440155     0.27600
N1469       N  0.79439437  0.50495456  0.53963160    -0.35200
N1470       N  0.78320924  0.00131704  0.96229188    -0.55700
N1471       N  0.71026214  0.51027089  0.95458510    -0.35200
N1472       N  0.71985771  0.51465044  0.54077686    -0.55700
C1473       C  0.82755094  0.51390899  0.53210442     0.28400
C1474       C  0.78848451  0.51054179  0.57930544     0.28400
C1475       C  0.71506191  0.51271822  0.91445214     0.28400
C1476       C  0.67833704  0.52296982  0.96326343     0.28400
C1477       C  0.81645283  0.00854613  0.97076277     0.37000
C1478       C  0.77699091  0.01307398  0.92507662     0.37000
C1479       C  0.72657303  0.51779274  0.58041236     0.37000
C1480       C  0.68699169  0.52590775  0.53568467     0.37000
C1481       C  0.84228180  0.52659431  0.56716611    -0.20400
C1482       C  0.81754843  0.52493177  0.59669195    -0.20400
C1483       C  0.68634099  0.52871992  0.89779874    -0.20400
C1484       C  0.66279862  0.53414342  0.92830415    -0.20400
C1485       C  0.83122261  0.02637581  0.93940396    -0.21500
C1486       C  0.80588128  0.02991917  0.91071472    -0.21500
C1487       C  0.69920979  0.53426931  0.59971661    -0.21500
C1488       C  0.67370936  0.53835250  0.57177120    -0.21500
C1489       C  0.83383571  0.99521764  0.00442465    -0.16900
C1490       C  0.75667690  0.50479888  0.59937223    -0.16900
C1491       C  0.66343968  0.52701124  0.00201538    -0.16800
C1492       C  0.74624314  0.00623183  0.90346055    -0.16800
H1493       H  0.86787992  0.53713058  0.57089406     0.16100
H1494       H  0.82040908  0.53412169  0.62726183     0.16100
H1495       H  0.68332623  0.04016311  0.87678788     0.16100
H1496       H  0.63791126  0.54685210  0.92547449     0.16100
H1497       H  0.85751810  0.03537626  0.93713373     0.14300
H1498       H  0.80874520  0.04216638  0.88193316     0.14300
H1499       H  0.69753204  0.54202494  0.63093963     0.14300
H1500       H  0.64886643  0.55032351  0.57764941     0.14300
H1501       H  0.77763647  0.49253521  0.51999684     0.27600
H1502       H  0.72681637  0.49778293  0.97426660     0.27600
N1503       N  0.78758915  0.99202994  0.71161476    -0.35200
N1504       N  0.71344817  0.99889388  0.70987448    -0.55700
N1505       N  0.71159824  0.99933968  0.79774615    -0.35200
N1506       N  0.78525710  0.98736042  0.79920696    -0.55700
C1507       C  0.78000318  0.98648837  0.67245827     0.28400
C1508       C  0.81724641  0.97446694  0.71906451     0.28400
C1509       C  0.67886388  0.99005787  0.78860678     0.28400
C1510       C  0.71713571  0.99029259  0.83634007     0.28400
C1511       C  0.71930974  0.00264020  0.66999869     0.37000
C1512       C  0.67878024  0.00177183  0.71546142     0.37000
C1513       C  0.81804365  0.97575827  0.79326155     0.37000
C1514       C  0.77911522  0.98591841  0.83922799     0.37000
C1515       C  0.80371291  0.96336166  0.65577412    -0.20400
C1516       C  0.82773880  0.95646129  0.68495311    -0.20400
C1517       C  0.66403134  0.97391811  0.82116745    -0.20400
C1518       C  0.68856863  0.97312210  0.85084590    -0.20400
C1519       C  0.68785303  0.00445656  0.65043116    -0.21500
C1520       C  0.66277792  0.00688310  0.67894837    -0.21500
C1521       C  0.83184559  0.96469897  0.82927352    -0.21500
C1522       C  0.80687438  0.96999982  0.85786187    -0.21500
C1523       C  0.75269149  0.00277807  0.65148719    -0.16900
C1524       C  0.83539055  0.97425473  0.75573489    -0.16900
C1525       C  0.74772482  0.99667679  0.85832327    -0.16800
C1526       C  0.66127166  0.99696539  0.75244180    -0.16800
H1527       H  0.80390250  0.95289095  0.62554039     0.16100
H1528       H  0.85003088  0.93954612  0.68175671     0.16100
H1529       H  0.63833137  0.96329694  0.82307369     0.16100
H1530       H  0.68561112  0.96150264  0.87996453     0.16100
H1531       H  0.68250663  0.00273150  0.61879687     0.14300
H1532       H  0.63582273  0.01095590  0.67228844     0.14300
H1533       H  0.85651252  0.95236121  0.83468051     0.14300
H1534       H  0.80878735  0.96183840  0.88864948     0.14300
H1535       H  0.77545731  0.00996531  0.73066472     0.27600
H1536       H  0.72790050  0.01436828  0.78037051     0.27600
C1537       C  0.60072469  0.98561303  0.72866643    -0.15000
C1538       C  0.62261845  0.00019426  0.75502358    -0.30200
H1539       H  0.61052763  0.96893398  0.70478009     0.14000
H1540       H  0.61226322  0.46086963  0.71290220     0.14600
C1541       C  0.89454702  0.98684061  0.72851682    -0.15000
C1542       C  0.87408976  0.97086935  0.75537053    -0.30200
H1543       H  0.88338531  0.99957078  0.70271502     0.14000
H1544       H  0.88866549  0.45812765  0.77649093     0.14600
C1545       C  0.99762065  0.89040558  0.73212113    -0.15000
C1546       C  0.97607680  0.87085143  0.75354280    -0.30200
H1547       H  0.01412145  0.87872544  0.70921950     0.14000
H1548       H  0.46454968  0.88904339  0.76984972     0.14600
C1549       C  0.99198614  0.59683465  0.75874304    -0.15000
C1550       C  0.01591929  0.61979824  0.74754386    -0.30200
H1551       H  0.96765786  0.60578896  0.77145905     0.14000
H1552       H  0.53843903  0.61598870  0.72577822     0.14600
C1553       C  0.60425408  0.50605055  0.99046233    -0.15000
C1554       C  0.62507434  0.53021390  0.00616497    -0.30200
H1555       H  0.61500959  0.48611574  0.97075323     0.14000
H1556       H  0.62088500  0.05305222  0.54572464     0.14600
C1557       C  0.89770412  0.49968026  0.01315390    -0.15000
C1558       C  0.87219243  0.99094219  0.00259187    -0.30200
H1559       H  0.89061219  0.47793695  0.54288491     0.14000
H1560       H  0.88421172  0.98839641  0.97324140     0.14600
C1561       C  0.51997159  0.90395033  0.01568389    -0.15000
C1562       C  0.50271497  0.87921415  0.99609049    -0.30200
H1563       H  0.54787962  0.89594003  0.52835324     0.14000
H1564       H  0.03830182  0.89147319  0.97867969     0.14600
C1565       C  0.49864892  0.62844810  0.98236514    -0.15000
C1566       C  0.50278410  0.60738048  0.01343789    -0.30200
H1567       H  0.00314909  0.61475140  0.95721958     0.14000
H1568       H  0.51376750  0.61463830  0.54088797     0.14600
loop_ 
_geom_bond_atom_site_label_1 
_geom_bond_atom_site_label_2 
_geom_bond_distance 
_geom_bond_site_symmetry_2 
_ccdc_geom_bond_type 
O1          V793   1.890       .  S
O1          C991   1.262   1_554  A
O2          V401   1.882       .  S
O2          C208   1.258       .  A
O3            V9   1.925       .  S
O3          C405   1.272       .  A
O4         V1185   1.896   1_455  S
O4           C14   1.263       .  A
O5         V1186   1.907       .  S
O5          C602   1.266       .  A
O6           V10   1.897       .  S
O6          C209   1.263       .  A
O7          V794   1.899       .  S
O7          C796   1.267       .  A
O8          V402   1.906       .  S
O8           C11   1.265       .  A
V9          O785   1.884       .  S
V9          O394   1.878       .  S
V9         O1180   1.918       .  S
V9          V598   2.080   1_554  T
V10        O1181   1.898       .  S
V10         O791   1.900       .  S
V10         O400   1.916   1_545  S
V10         V597   2.080       .  T
C11         O981   1.265       .  A
C11         C973   1.477       .  S
C12         O198   1.260       .  A
C12         O791   1.266       .  A
C12         C978   1.463       .  S
C13         O395   1.272       .  A
C13         O202   1.264   1_554  A
C13         C381   1.498       .  S
C14         O593   1.261   1_554  A
C14         C377   1.461       .  S
O15          V23   1.905       .  S
O15          C25   1.266       .  A
O16         V807   1.912       .  S
O16          C26   1.266       .  A
O17         V415   1.901   1_545  S
O17         C811   1.263       .  A
O18         V807   1.906       .  S
O18          C28   1.264       .  A
O19         V808   1.905       .  S
O19         C812   1.266       .  A
O20         V416   1.912   1_545  S
O20          C27   1.268       .  A
O21          V24   1.886       .  S
O21          C26   1.262       .  A
O22         V808   1.908   1_455  S
O22          C25   1.265       .  A
V23         O800   1.909   1_455  S
V23         O409   1.912       .  S
V23         O802   1.901       .  S
V23         V808   2.086   1_455  T
V24         O803   1.895       .  S
V24         O412   1.910       .  S
V24         O806   1.906       .  S
V24         V807   2.088       .  T
C25         C165   1.479       .  S
C26         C169   1.475       .  S
C27         O801   1.264       .  A
C27         C177   1.480       .  S
C28         O803   1.264       .  A
C28         C173   1.473       .  S
N29          C34   1.349       .  A
N29          C33   1.352       .  A
N29          H61   1.043   1_655  S
N30          C37   1.344       .  A
N30          C38   1.345       .  A
N31          C36   1.352       .  A
N31          C35   1.357       .  A
N31          H62   1.038   1_455  S
N32          C39   1.354       .  A
N32          C40   1.351       .  A
C33          C41   1.387       .  A
C33         C245   1.414   1_554  A
C34          C50   1.412       .  A
C34          C42   1.387       .  A
C35          C43   1.387       .  A
C35          C52   1.424       .  A
C36          C51   1.414       .  A
C36          C44   1.386       .  A
C37          C49   1.402       .  A
C37          C45   1.386       .  A
C38          C52   1.410       .  A
C38          C46   1.387       .  A
C39          C47   1.385       .  A
C39          C50   1.421   1_455  A
C40          C48   1.390       .  A
C40         C247   1.421       .  A
C41          C42   1.378       .  A
C41          H53   1.082       .  S
C42          H54   1.082       .  S
C43          C44   1.375       .  A
C43          H55   1.082       .  S
C44          H56   1.082       .  S
C45          C46   1.377       .  A
C45          H57   1.082       .  S
C46          H58   1.082       .  S
C47          C48   1.375       .  A
C47          H59   1.082       .  S
C48          H60   1.080       .  S
C49         C193   1.483       .  S
C49         C229   1.415   1_455  A
C50         C869   1.507       .  S
C51         C190   1.493       .  S
C51         C236   1.422       .  A
C52         C867   1.538       .  S
N63          C68   1.354       .  A
N63          C67   1.353       .  A
N63          H95   1.041       .  S
N64          C71   1.357       .  A
N64          C72   1.358       .  A
N65          C70   1.359       .  A
N65          C69   1.355       .  A
N65          H96   1.042       .  S
N66          C73   1.347       .  A
N66          C74   1.350       .  A
C67          C75   1.387       .  A
C67          C83   1.416       .  A
C68          C84   1.409       .  A
C68          C76   1.385       .  A
C69          C77   1.388       .  A
C69          C86   1.421       .  A
C70          C85   1.429       .  A
C70          C78   1.388       .  A
C71          C83   1.429       .  A
C71          C79   1.384       .  A
C72          C86   1.425       .  A
C72          C80   1.387       .  A
C73          C81   1.383       .  A
C73          C84   1.407       .  A
C74          C82   1.388       .  A
C74          C85   1.415       .  A
C75          C76   1.369       .  A
C75          H87   1.082       .  S
C76          H88   1.081       .  S
C77          C78   1.380       .  A
C77          H89   1.081       .  S
C78          H90   1.082       .  S
C79          C80   1.369       .  A
C79          H91   1.080       .  S
C80          H92   1.077       .  S
C81          C82   1.375       .  A
C81          H93   1.082       .  S
C82          H94   1.082       .  S
C83         C836   1.538       .  S
C84         C174   1.489       .  S
C85         C834   1.521       .  S
C86         C178   1.506       .  S
N97         C102   1.356       .  A
N97         C101   1.357       .  A
N97         H129   1.041   1_545  S
N98         C105   1.359       .  A
N98         C106   1.361       .  A
N99         C104   1.354       .  A
N99         C103   1.353       .  A
N99         H130   1.042   1_545  S
N100        C107   1.352       .  A
N100        C108   1.352       .  A
C101        C109   1.387       .  A
C101        C705   1.421       .  A
C102        C118   1.422       .  A
C102        C110   1.386       .  A
C103        C111   1.388       .  A
C103        C512   1.416       .  A
C104        C119   1.410       .  A
C104        C112   1.383       .  A
C105        C117   1.431       .  A
C105        C113   1.391       .  A
C106        C120   1.431       .  A
C106        C114   1.383       .  A
C107        C115   1.381       .  A
C107        C118   1.416       .  A
C108        C116   1.388       .  A
C108        C315   1.414       .  A
C109        C110   1.376       .  A
C109        H121   1.082       .  S
C110        H122   1.082       .  S
C111        C112   1.373       .  A
C111        H515   1.082       .  S
C112        H124   1.082       .  S
C113        C114   1.370       .  A
C113        H125   1.079       .  S
C114        H126   1.082       .  S
C115        C116   1.362       .  A
C115        H127   1.081       .  S
C116        H128   1.076       .  S
C117        C186   1.516       .  S
C117        C689   1.428       .  A
C118        C543   1.540   1_545  S
C119        C182   1.492       .  S
C119        C304   1.408       .  A
C120        C495   1.416       .  A
C120        C153   1.548       .  S
H123        C503   1.082       .  S
N131        C136   1.352       .  A
N131        C135   1.351       .  A
N131        H163   1.041       .  S
N132        C139   1.355       .  A
N132        C140   1.353       .  A
N133        C138   1.358       .  A
N133        C137   1.357       .  A
N133        H164   1.039       .  S
N134        C141   1.351       .  A
N134        C142   1.352       .  A
C135        C143   1.386       .  A
C135        C151   1.411       .  A
C136        C152   1.410       .  A
C136        C144   1.386       .  A
C137        C145   1.387       .  A
C137        C154   1.424       .  A
C138        C153   1.426       .  A
C138        C146   1.386       .  A
C139        C151   1.419       .  A
C139        C147   1.383       .  A
C140        C154   1.422       .  A
C140        C148   1.391       .  A
C141        C149   1.388       .  A
C141        C152   1.414       .  A
C142        C150   1.384       .  A
C142        C153   1.416       .  A
C143        C144   1.374       .  A
C143        H155   1.082       .  S
C144        H156   1.082       .  S
C145        C146   1.377       .  A
C145        H157   1.082       .  S
C146        H158   1.082       .  S
C147        C148   1.370       .  A
C147        H159   1.082       .  S
C148        H160   1.080       .  S
C149        C150   1.369       .  A
C149        H161   1.080       .  S
C150        H162   1.082       .  S
C151        C510   1.536       .  S
C152        C170   1.492       .  S
C154        C166   1.503       .  S
C165        C166   1.348       .  D
C165        H167   1.086       .  S
C166        H560   1.084       .  S
H168        C558   1.083       .  S
C169        C170   1.350       .  D
C169        H171   1.086       .  S
C170        H564   1.083       .  S
H172        C562   1.085       .  S
C173        C174   1.346       .  D
C173        H175   1.086       .  S
C174        H960   1.085       .  S
H176        C958   1.085       .  S
C177        C178   1.348       .  D
C177        H179   1.084       .  S
C178        H964   1.086       .  S
H180        C962   1.086       .  S
C181        C210   1.472   1_545  S
C181        C182   1.344       .  D
C181        H183   1.086   1_545  S
C182        H772   1.084       .  S
H184        C770   1.085   1_554  S
C185        C209   1.490       .  S
C185        C578   1.356       .  D
C185        H383   1.086   1_545  S
C186        C577   1.355       .  D
C186        H188   1.082       .  S
H187        C381   1.085   1_565  S
C189        C795   1.473       .  S
C189        C190   1.337       .  D
C189        H387   1.084       .  S
C190        H976   1.087   1_455  S
H191        C385   1.086   1_655  S
H192        C974   1.084       .  S
C193        C194   1.338       .  D
C193        H979   1.087       .  S
C194        C796   1.469       .  S
C194        H392   1.086       .  S
H195        C977   1.087       .  S
H196        C390   1.085       .  S
O197        V989   1.895       .  S
O197        C795   1.261       .  A
O198        V597   1.888       .  S
O199        V205   1.917       .  S
O199        C601   1.269       .  A
O200       V1381   1.905       .  S
O200        C210   1.267       .  A
O201       V1382   1.896   1_455  S
O201        C406   1.261       .  A
O202        V206   1.901       .  S
O203        V990   1.912   1_545  S
O203        C992   1.268   1_556  A
O204        V598   1.917       .  S
O204        C207   1.270   1_556  A
V205        O981   1.901       .  S
V205        O590   1.895       .  S
V205       O1376   1.905       .  S
V205        V402   2.083       .  T
V206       O1377   1.897       .  S
V206        O987   1.903       .  S
V206        O596   1.913   1_545  S
V206        V401   2.085   1_556  T
C207        O785   1.258       .  A
C207       C1169   1.467       .  S
C208        O987   1.267   1_554  A
C208       C1174   1.461       .  S
C209        O591   1.272   1_545  A
C210        O397   1.262       .  A
O211        V219   1.913       .  S
O211        C221   1.268       .  A
O212       V1003   1.913       .  S
O212        C222   1.267       .  A
O213        V611   1.902   1_545  S
O213       C1007   1.263   1_455  A
O214       V1003   1.896       .  S
O214        C224   1.261       .  A
O215       V1004   1.903       .  S
O215       C1008   1.267       .  A
O216        V612   1.910   1_545  S
O216        C223   1.266       .  A
O217        V220   1.887       .  S
O217        C222   1.262       .  A
O218       V1004   1.910   1_455  S
O218        C221   1.265       .  A
V219        O996   1.911   1_455  S
V219        O605   1.914       .  S
V219        O998   1.903   1_455  S
V219       V1004   2.084   1_455  T
V220        O999   1.904       .  S
V220        O608   1.907       .  S
V220       O1002   1.905       .  S
V220       V1003   2.085       .  T
C221        C361   1.487       .  S
C222        C365   1.476       .  S
C223        O997   1.265       .  A
C223        C373   1.480       .  S
C224        O999   1.267       .  A
C224        C369   1.469       .  S
N225        C230   1.352   1_455  A
N225        C229   1.351   1_455  A
N225        H257   1.044       .  S
N226        C233   1.348   1_655  A
N226        C234   1.345   1_655  A
N227        C232   1.354       .  A
N227        C231   1.356       .  A
N227        H258   1.037   1_455  S
N228        C235   1.354       .  A
N228        C236   1.351       .  A
C229        C237   1.387       .  A
C230        C246   1.418   1_655  A
C230        C238   1.388       .  A
C231        C239   1.387       .  A
C231        C248   1.422       .  A
C232        C247   1.421   1_556  A
C232        C240   1.388       .  A
C233        C245   1.404   1_455  A
C233        C241   1.384       .  A
C234        C248   1.410       .  A
C234        C242   1.388       .  A
C235        C243   1.384       .  A
C235        C246   1.421       .  A
C236        C244   1.388       .  A
C237        C238   1.382       .  A
C237        H249   1.082       .  S
C238        H250   1.082       .  S
C239        C240   1.374       .  A
C239        H251   1.082       .  S
C240        H252   1.082       .  S
C241        C242   1.377       .  A
C241        H253   1.082       .  S
C242        H254   1.082       .  S
C243        C244   1.374       .  A
C243        H255   1.082       .  S
C244        H256   1.077       .  S
C245        C389   1.494       .  S
C246       C1065   1.519   1_455  S
C247        C386   1.498       .  S
C248       C1063   1.532   1_455  S
N259        C264   1.354       .  A
N259        C263   1.352       .  A
N259        H291   1.041       .  S
N260        C267   1.352       .  A
N260        C268   1.355       .  A
N261        C266   1.356       .  A
N261        C265   1.357       .  A
N261        H292   1.042       .  S
N262        C269   1.349       .  A
N262        C270   1.349       .  A
C263        C271   1.388       .  A
C263        C279   1.416       .  A
C264        C280   1.407       .  A
C264        C272   1.385       .  A
C265        C273   1.386       .  A
C265        C282   1.418       .  A
C266        C281   1.424       .  A
C266        C274   1.388       .  A
C267        C279   1.422       .  A
C267        C275   1.385       .  A
C268        C282   1.419       .  A
C268        C276   1.387       .  A
C269        C277   1.384       .  A
C269        C280   1.408       .  A
C270        C278   1.388       .  A
C270        C281   1.414       .  A
C271        C272   1.370       .  A
C271        H283   1.082       .  S
C272        H284   1.081       .  S
C273        C274   1.379       .  A
C273        H285   1.081       .  S
C274        H286   1.082       .  S
C275        C276   1.372       .  A
C275        H287   1.082       .  S
C276        H288   1.078       .  S
C277        C278   1.373       .  A
C277        H289   1.082       .  S
C278        H290   1.082       .  S
C279       C1032   1.534       .  S
C280        C370   1.490       .  S
C281       C1030   1.508       .  S
C282        C374   1.504       .  S
N293        C298   1.355       .  A
N293        C297   1.356       .  A
N293        H325   1.041   1_545  S
N294        C301   1.358       .  A
N294        C302   1.358       .  A
N295        C300   1.354       .  A
N295        C299   1.355       .  A
N295        H326   1.041   1_545  S
N296        C303   1.351       .  A
N296        C304   1.351       .  A
C297        C305   1.388       .  A
C297        C509   1.421       .  A
C298        C314   1.420       .  A
C298        C306   1.386       .  A
C299        C307   1.388       .  A
C299        C708   1.420       .  A
C300        C315   1.407   1_556  A
C300        C308   1.383       .  A
C301        C313   1.428       .  A
C301        C309   1.388       .  A
C302        C316   1.431       .  A
C302        C310   1.385       .  A
C303        C311   1.385       .  A
C303        C314   1.413       .  A
C304        C312   1.387       .  A
C305        C306   1.375       .  A
C305        H317   1.082       .  S
C306        H318   1.082       .  S
C307        C308   1.372       .  A
C307        H711   1.082       .  S
C308        H320   1.083       .  S
C309        C310   1.373       .  A
C309        H321   1.080       .  S
C310        H322   1.082       .  S
C311        C312   1.365       .  A
C311        H323   1.082       .  S
C312        H324   1.080       .  S
C313        C382   1.515       .  S
C313        C493   1.420   1_556  A
C314        C739   1.534   1_545  S
C315        C378   1.487       .  S
C316        C691   1.419       .  A
C316        C349   1.546       .  S
H319        C699   1.082       .  S
N327        C332   1.354       .  A
N327        C331   1.355       .  A
N327        H359   1.042       .  S
N328        C335   1.361       .  A
N328        C336   1.358       .  A
N329        C334   1.359       .  A
N329        C333   1.357       .  A
N329        H360   1.041       .  S
N330        C337   1.352       .  A
N330        C338   1.353       .  A
C331        C339   1.386       .  A
C331        C347   1.417       .  A
C332        C348   1.413       .  A
C332        C340   1.385       .  A
C333        C341   1.387       .  A
C333        C350   1.423       .  A
C334        C349   1.423       .  A
C334        C342   1.386       .  A
C335        C347   1.430       .  A
C335        C343   1.384       .  A
C336        C350   1.425       .  A
C336        C344   1.389       .  A
C337        C345   1.389       .  A
C337        C348   1.415       .  A
C338        C346   1.383       .  A
C338        C349   1.415       .  A
C339        C340   1.372       .  A
C339        H351   1.082       .  S
C340        H352   1.082       .  S
C341        C342   1.377       .  A
C341        H353   1.082       .  S
C342        H354   1.082       .  S
C343        C344   1.368       .  A
C343        H355   1.082       .  S
C344        H356   1.080       .  S
C345        C346   1.366       .  A
C345        H357   1.080       .  S
C346        H358   1.082       .  S
C347        C706   1.549       .  S
C348        C366   1.497       .  S
C350        C362   1.509       .  S
C361        C362   1.350       .  D
C361        H363   1.086       .  S
C362        H756   1.084       .  S
H364        C754   1.082       .  S
C365        C366   1.350       .  D
C365        H367   1.086       .  S
C366        H760   1.082       .  S
H368        C758   1.084       .  S
C369        C370   1.344       .  D
C369        H371   1.086       .  S
C370       H1156   1.085       .  S
H372       C1154   1.084       .  S
C373        C374   1.345       .  D
C373        H375   1.085       .  S
C374       H1160   1.086       .  S
H376       C1158   1.086       .  S
C377        C378   1.335       .  D
C377        H379   1.085       .  S
C378        H576   1.087   1_544  S
H380        C574   1.084       .  S
C381        C774   1.360       .  D
C382        C773   1.359   1_556  D
C382        H384   1.083       .  S
C385        C991   1.476       .  S
C385        C386   1.352   1_556  D
C386       H1172   1.083       .  S
H388       C1170   1.087       .  S
C389        C390   1.342   1_556  D
C389       H1175   1.087       .  S
C390        C992   1.471       .  S
H391       C1173   1.087       .  S
O393       V1185   1.904   1_465  S
O393       C1383   1.264       .  A
O394        C600   1.257       .  A
O395        V401   1.930       .  S
O396        V793   1.906       .  S
O396        C406   1.267   1_554  A
O397        V794   1.902   1_565  S
O398        V402   1.909       .  S
O398        C601   1.266       .  A
O399       V1186   1.897       .  S
O399       C1188   1.265       .  A
O400        C403   1.268       .  A
V401       O1177   1.893   1_545  S
V401        O788   1.918       .  S
V402        O789   1.909       .  S
V402       O1183   1.898       .  S
C403       O1373   1.264       .  A
C403       C1365   1.483       .  S
C404        O590   1.262       .  A
C404       O1183   1.266       .  A
C404       C1370   1.470       .  S
C405        O594   1.262   1_554  A
C405        C773   1.489       .  S
C406        C769   1.469       .  S
O407        V415   1.912   1_455  S
O407        C417   1.267       .  A
O408       V1199   1.907   1_545  S
O408        C418   1.266   1_545  A
O409       C1203   1.266   1_455  A
O410       V1199   1.893       .  S
O410        C420   1.261       .  A
O411       V1200   1.901       .  S
O411       C1204   1.265       .  A
O412        C419   1.267       .  A
O413        V416   1.888       .  S
O413        C418   1.262       .  A
O414       V1200   1.901   1_455  S
O414        C417   1.264       .  A
V415       O1192   1.917       .  S
V415       O1194   1.901       .  S
V415       V1200   2.087       .  T
V416       O1195   1.904       .  S
V416       O1198   1.908       .  S
V416       V1199   2.083       .  T
C417        C557   1.484       .  S
C418        C561   1.470       .  S
C419       O1193   1.266       .  A
C419        C569   1.485       .  S
C420       O1195   1.268       .  A
C420        C565   1.470       .  S
N421        C426   1.352       .  A
N421        C425   1.356       .  A
N421        H453   1.044       .  S
N422        C429   1.346       .  A
N422        C430   1.345       .  A
N423        C428   1.358       .  A
N423        C427   1.362       .  A
N423        H454   1.037       .  S
N424        C431   1.355       .  A
N424        C432   1.355       .  A
C425        C433   1.387   1_455  A
C425        C637   1.419   1_554  A
C426        C442   1.421       .  A
C426        C434   1.388   1_455  A
C427        C435   1.387       .  A
C427        C444   1.433       .  A
C428        C443   1.428       .  A
C428        C436   1.386       .  A
C429        C441   1.403       .  A
C429        C437   1.386       .  A
C430        C444   1.410       .  A
C430        C438   1.388       .  A
C431        C439   1.387       .  A
C431        C442   1.427       .  A
C432        C440   1.387       .  A
C432        C639   1.428       .  A
C433        C434   1.382       .  A
C433        H445   1.081       .  S
C434        H446   1.082       .  S
C435        C436   1.377       .  A
C435        H447   1.082       .  S
C436        H448   1.082       .  S
C437        C438   1.377       .  A
C437        H449   1.082       .  S
C438        H450   1.083       .  S
C439        C440   1.379       .  A
C439        H451   1.082       .  S
C440        H452   1.082       .  S
C441        C585   1.490   1_455  S
C441        C621   1.414   1_455  A
C442       C1261   1.519       .  S
C443        C582   1.501       .  S
C443        C628   1.422       .  A
C444       C1259   1.544       .  S
N455        C460   1.352       .  A
N455        C459   1.350       .  A
N455        H487   1.043       .  S
N456        C463   1.355       .  A
N456        C464   1.358       .  A
N457        C462   1.360       .  A
N457        C461   1.358       .  A
N457        H488   1.043       .  S
N458        C465   1.349       .  A
N458        C466   1.350       .  A
C459        C467   1.385       .  A
C459        C475   1.407       .  A
C460        C476   1.404       .  A
C460        C468   1.386       .  A
C461        C469   1.388       .  A
C461        C478   1.424       .  A
C462        C477   1.428       .  A
C462        C470   1.387       .  A
C463        C475   1.426       .  A
C463        C471   1.385       .  A
C464        C478   1.425       .  A
C464        C472   1.389       .  A
C465        C473   1.384       .  A
C465        C476   1.408       .  A
C466        C474   1.388       .  A
C466        C477   1.415       .  A
C467        C468   1.369       .  A
C467        H479   1.082       .  S
C468        H480   1.081       .  S
C469        C470   1.379       .  A
C469        H481   1.081       .  S
C470        H482   1.082       .  S
C471        C472   1.373       .  A
C471        H483   1.082       .  S
C472        H484   1.077       .  S
C473        C474   1.375       .  A
C473        H485   1.082       .  S
C474        H486   1.082       .  S
C475       C1228   1.536       .  S
C476        C566   1.492       .  S
C477       C1226   1.520       .  S
C478        C570   1.511       .  S
N489        C494   1.355       .  A
N489        C493   1.357       .  A
N489        H521   1.040       .  S
N490        C497   1.359       .  A
N490        C498   1.361       .  A
N491        C496   1.354       .  A
N491        C495   1.353       .  A
N491        H522   1.038       .  S
N492        C499   1.352       .  A
N492        C500   1.352       .  A
C493        C501   1.387       .  A
C494        C510   1.417       .  A
C494        C502   1.385       .  A
C495        C503   1.386       .  A
C496        C511   1.416       .  A
C496        C504   1.389       .  A
C497        C509   1.429       .  A
C497        C505   1.388       .  A
C498        C512   1.432       .  A
C498        C506   1.385       .  A
C499        C507   1.384       .  A
C499        C510   1.416       .  A
C500        C508   1.388       .  A
C500        C707   1.414   1_554  A
C501        C502   1.372       .  A
C501        H513   1.082       .  S
C502        H514   1.082       .  S
C503        C504   1.373       .  A
C504        H516   1.081       .  S
C505        C506   1.370       .  A
C505        H517   1.080       .  S
C506        H518   1.081       .  S
C507        C508   1.367       .  A
C507        H519   1.082       .  S
C508        H520   1.080       .  S
C509        C578   1.509       .  S
C511        C574   1.501       .  S
C511        C696   1.418       .  A
C512        C545   1.548   1_545  S
N523        C528   1.351       .  A
N523        C527   1.351       .  A
N523        H555   1.039   1_565  S
N524        C531   1.354       .  A
N524        C532   1.353       .  A
N525        C530   1.358       .  A
N525        C529   1.359       .  A
N525        H556   1.037   1_565  S
N526        C533   1.351       .  A
N526        C534   1.351       .  A
C527        C535   1.387       .  A
C527        C543   1.412       .  A
C528        C544   1.411       .  A
C528        C536   1.386       .  A
C529        C537   1.390       .  A
C529        C546   1.428       .  A
C530        C545   1.429       .  A
C530        C538   1.385       .  A
C531        C543   1.421       .  A
C531        C539   1.385       .  A
C532        C546   1.419       .  A
C532        C540   1.387       .  A
C533        C541   1.387       .  A
C533        C544   1.412       .  A
C534        C542   1.385       .  A
C534        C545   1.416       .  A
C535        C536   1.372       .  A
C535        H547   1.082       .  S
C536        H548   1.082       .  S
C537        C538   1.374       .  A
C537        H549   1.080       .  S
C538        H550   1.082       .  S
C539        C540   1.373       .  A
C539        H551   1.082       .  S
C540        H552   1.082       .  S
C541        C542   1.373       .  A
C541        H553   1.081       .  S
C542        H554   1.082       .  S
C544        C562   1.492       .  S
C546        C558   1.508       .  S
C557        C558   1.353       .  D
C557        H559   1.086   1_565  S
C561        C562   1.350       .  D
C561        H563   1.086   1_565  S
C565        C566   1.342       .  D
C565        H567   1.086       .  S
C566       H1352   1.085       .  S
H568       C1350   1.084       .  S
C569        C570   1.348       .  D
C569        H571   1.084       .  S
C570       H1356   1.085       .  S
H572       C1354   1.086       .  S
C573        C602   1.475       .  S
C573        C574   1.347       .  D
C573        H575   1.085       .  S
C577        C601   1.493       .  S
C577        H775   1.086       .  S
C578        H580   1.084       .  S
H579        C773   1.085       .  S
C581       C1187   1.480       .  S
C581        C582   1.349       .  D
C581        H779   1.086   1_455  S
C582       H1368   1.084       .  S
H583        C777   1.085   1_655  S
H584       C1366   1.087       .  S
C585        C586   1.342   1_655  D
C585       H1371   1.087       .  S
C586       C1188   1.469       .  S
C586        H784   1.085       .  S
H587       C1369   1.088       .  S
H588        C782   1.085       .  S
O589       V1381   1.900       .  S
O589       C1187   1.264       .  A
O591        V597   1.927   1_565  S
O592        V989   1.900       .  S
O592        C602   1.263       .  A
O593        V990   1.894   1_445  S
O594        V598   1.898       .  S
O595       V1382   1.909   1_455  S
O595       C1384   1.269   1_556  A
O596        C599   1.268   1_556  A
V597       O1373   1.901   1_545  S
V597        O984   1.923       .  S
V598        O985   1.893       .  S
V598       O1379   1.912       .  S
C599       O1177   1.261       .  A
C599       C1561   1.475       .  S
C600       O1379   1.269   1_554  A
C600       C1566   1.465       .  S
O603        V611   1.913       .  S
O603        C613   1.269       .  A
O604       V1395   1.908       .  S
O604        C614   1.267       .  A
O605       C1399   1.267   1_455  A
O606       V1395   1.900   1_565  S
O606        C616   1.263       .  A
O607       V1396   1.902       .  S
O607       C1400   1.267       .  A
O608        C615   1.266       .  A
O609        V612   1.891       .  S
O609        C614   1.261   1_565  A
O610       V1396   1.908   1_455  S
O610        C613   1.264       .  A
V611       O1388   1.920   1_455  S
V611       O1390   1.894       .  S
V611       V1396   2.085   1_455  T
V612       O1391   1.905       .  S
V612       O1394   1.904       .  S
V612       V1395   2.084   1_565  T
C613        C753   1.485       .  S
C614        C757   1.472       .  S
C615       O1389   1.264       .  A
C615        C765   1.477       .  S
C616       O1391   1.267       .  A
C616        C761   1.476       .  S
N617        C622   1.353   1_455  A
N617        C621   1.352   1_455  A
N617        H649   1.044       .  S
N618        C625   1.345       .  A
N618        C626   1.343       .  A
N619        C624   1.356       .  A
N619        C623   1.357       .  A
N619        H650   1.036       .  S
N620        C627   1.354       .  A
N620        C628   1.350       .  A
C621        C629   1.386       .  A
C622        C638   1.416   1_655  A
C622        C630   1.386       .  A
C623        C631   1.385       .  A
C623        C640   1.426       .  A
C624        C639   1.429   1_556  A
C624        C632   1.392       .  A
C625        C637   1.402       .  A
C625        C633   1.386       .  A
C626        C640   1.406       .  A
C626        C634   1.387       .  A
C627        C635   1.384       .  A
C627        C638   1.419       .  A
C628        C636   1.392       .  A
C629        C630   1.379       .  A
C629        H641   1.082       .  S
C630        H642   1.082       .  S
C631        C632   1.378       .  A
C631        H643   1.082       .  S
C632        H644   1.080       .  S
C633        C634   1.377       .  A
C633        H645   1.082       .  S
C634        H646   1.083       .  S
C635        C636   1.375       .  A
C635        H647   1.082       .  S
C636        H648   1.080       .  S
C637        C781   1.493       .  S
C638       C1457   1.516       .  S
C639        C778   1.515       .  S
C640       C1455   1.536       .  S
N651        C656   1.352       .  A
N651        C655   1.353       .  A
N651        H683   1.041       .  S
N652        C659   1.355       .  A
N652        C660   1.357       .  A
N653        C658   1.357       .  A
N653        C657   1.355       .  A
N653        H684   1.043       .  S
N654        C661   1.350       .  A
N654        C662   1.352       .  A
C655        C663   1.387       .  A
C655        C671   1.415       .  A
C656        C672   1.411       .  A
C656        C664   1.387       .  A
C657        C665   1.388       .  A
C657        C674   1.419       .  A
C658        C673   1.425       .  A
C658        C666   1.388       .  A
C659        C671   1.427       .  A
C659        C667   1.385       .  A
C660        C674   1.423       .  A
C660        C668   1.388       .  A
C661        C669   1.384       .  A
C661        C672   1.413       .  A
C662        C670   1.388       .  A
C662        C673   1.420       .  A
C663        C664   1.374       .  A
C663        H675   1.082       .  S
C664        H676   1.082       .  S
C665        C666   1.379       .  A
C665        H677   1.081       .  S
C666        H678   1.082       .  S
C667        C668   1.371       .  A
C667        H679   1.081       .  S
C668        H680   1.078       .  S
C669        C670   1.376       .  A
C669        H681   1.082       .  S
C670        H682   1.082       .  S
C671       C1424   1.539       .  S
C672        C762   1.499       .  S
C673       C1422   1.520       .  S
C674        C766   1.502       .  S
N685        C690   1.360       .  A
N685        C689   1.360       .  A
N685        H717   1.040       .  S
N686        C693   1.360       .  A
N686        C694   1.361       .  A
N687        C692   1.354       .  A
N687        C691   1.353       .  A
N687        H718   1.038       .  S
N688        C695   1.353       .  A
N688        C696   1.353       .  A
C689        C697   1.387       .  A
C690        C706   1.425       .  A
C690        C698   1.385       .  A
C691        C699   1.388       .  A
C692        C707   1.417       .  A
C692        C700   1.386       .  A
C693        C705   1.431   1_556  A
C693        C701   1.389       .  A
C694        C708   1.432       .  A
C694        C702   1.384       .  A
C695        C703   1.386       .  A
C695        C706   1.418       .  A
C696        C704   1.385       .  A
C697        C698   1.375       .  A
C697        H709   1.082       .  S
C698        H710   1.082       .  S
C699        C700   1.375       .  A
C700        H712   1.082       .  S
C701        C702   1.369       .  A
C701        H713   1.079       .  S
C702        H714   1.082       .  S
C703        C704   1.371       .  A
C703        H715   1.082       .  S
C704        H716   1.082       .  S
C705        C774   1.518       .  S
C707        C770   1.493       .  S
C708        C741   1.553   1_545  S
N719        C724   1.349       .  A
N719        C723   1.349       .  A
N719        H751   1.042   1_565  S
N720        C727   1.355       .  A
N720        C728   1.353       .  A
N721        C726   1.359       .  A
N721        C725   1.360       .  A
N721        H752   1.041   1_565  S
N722        C729   1.355       .  A
N722        C730   1.353       .  A
C723        C731   1.385       .  A
C723        C739   1.403       .  A
C724        C740   1.406       .  A
C724        C732   1.387       .  A
C725        C733   1.385       .  A
C725        C742   1.424       .  A
C726        C741   1.428       .  A
C726        C734   1.387       .  A
C727        C739   1.418       .  A
C727        C735   1.382       .  A
C728        C742   1.420       .  A
C728        C736   1.391       .  A
C729        C737   1.384       .  A
C729        C740   1.414       .  A
C730        C738   1.386       .  A
C730        C741   1.421       .  A
C731        C732   1.369       .  A
C731        H743   1.082       .  S
C732        H744   1.082       .  S
C733        C734   1.376       .  A
C733        H745   1.082       .  S
C734        H746   1.082       .  S
C735        C736   1.368       .  A
C735        H747   1.082       .  S
C736        H748   1.079       .  S
C737        C738   1.372       .  A
C737        H749   1.081       .  S
C738        H750   1.082       .  S
C740        C758   1.498       .  S
C742        C754   1.508       .  S
C753        C754   1.348       .  D
C753        H755   1.086   1_565  S
C757        C758   1.353   1_545  D
C757        H759   1.086       .  S
C761        C762   1.347       .  D
C761        H763   1.085       .  S
C762       H1548   1.085       .  S
H764       C1546   1.085       .  S
C765        C766   1.345       .  D
C765        H767   1.085       .  S
C766       H1552   1.086       .  S
H768       C1550   1.085       .  S
C769        C770   1.343       .  D
C769        H771   1.086       .  S
C774        H776   1.081   1_554  S
C777       C1383   1.488       .  S
C777        C778   1.351       .  D
C778       H1564   1.083   1_554  S
H780       C1562   1.087       .  S
C781        C782   1.340   1_556  D
C781       H1567   1.087       .  S
C782       C1384   1.475       .  S
H783       C1565   1.087       .  S
O786       V1185   1.888       .  S
O786        C992   1.260       .  A
O787        V793   1.914   1_655  S
O787       C1189   1.268       .  A
O788        C798   1.269       .  A
O789       C1386   1.265       .  A
O790        V794   1.903   1_655  S
O790        C993   1.264   1_545  A
O792       V1186   1.914       .  S
O792        C795   1.267       .  A
V793       O1178   1.889       .  S
V793       V1382   2.084   1_454  T
V794       O1184   1.910   1_545  S
V794       V1381   2.083   1_545  T
C796        O982   1.260       .  A
C797       O1179   1.264       .  A
C797        O986   1.265   1_554  A
C797       C1165   1.475       .  S
C798       O1377   1.262   1_554  A
C798       C1161   1.480   1_554  S
O799        V807   1.912       .  S
O799        C809   1.267       .  A
O800        C810   1.266       .  A
O801       V1199   1.907   1_545  S
O802        C812   1.263   1_455  A
O804       V1200   1.909   1_545  S
O804        C811   1.266       .  A
O805        V808   1.894       .  S
O805        C810   1.263       .  A
O806        C809   1.265       .  A
V807       O1193   1.913       .  S
V808       O1196   1.908       .  S
C809        C949   1.483       .  S
C810        C953   1.477       .  S
C811        C961   1.473       .  S
C812        C957   1.476       .  S
N813        C818   1.351       .  A
N813        C817   1.351       .  A
N813        H845   1.044       .  S
N814        C821   1.343       .  A
N814        C822   1.342       .  A
N815        C820   1.353       .  A
N815        C819   1.358       .  A
N815        H846   1.036       .  S
N816        C823   1.357       .  A
N816        C824   1.352       .  A
C817        C825   1.387       .  A
C817       C1029   1.413   1_554  A
C818        C834   1.413       .  A
C818        C826   1.386       .  A
C819        C827   1.386       .  A
C819        C836   1.427       .  A
C820        C835   1.427       .  A
C820        C828   1.390       .  A
C821        C833   1.398       .  A
C821        C829   1.385       .  A
C822        C836   1.402       .  A
C822        C830   1.387       .  A
C823        C831   1.385       .  A
C823        C834   1.427       .  A
C824        C832   1.387       .  A
C824       C1031   1.422   1_554  A
C825        C826   1.379       .  A
C825        H837   1.082       .  S
C826        H838   1.082       .  S
C827        C828   1.380       .  A
C827        H839   1.082       .  S
C828        H840   1.082       .  S
C829        C830   1.379       .  A
C829        H841   1.082       .  S
C830        H842   1.082       .  S
C831        C832   1.375       .  A
C831        H843   1.081       .  S
C832        H844   1.079       .  S
C833        C977   1.480       .  S
C833       C1013   1.409       .  A
C835        C974   1.499       .  S
C835       C1020   1.424       .  A
N847        C852   1.356       .  A
N847        C851   1.354       .  A
N847        H879   1.042   1_655  S
N848        C855   1.352   1_455  A
N848        C856   1.354       .  A
N849        C854   1.356   1_655  A
N849        C853   1.354   1_655  A
N849        H880   1.043       .  S
N850        C857   1.347       .  A
N850        C858   1.348       .  A
C851        C859   1.388       .  A
C851        C867   1.420   1_655  A
C852        C868   1.410       .  A
C852        C860   1.384       .  A
C853        C861   1.386       .  A
C853        C870   1.415       .  A
C854        C869   1.424   1_455  A
C854        C862   1.388       .  A
C855        C867   1.422   1_655  A
C855        C863   1.387       .  A
C856        C870   1.417       .  A
C856        C864   1.386   1_455  A
C857        C865   1.385       .  A
C857        C868   1.408       .  A
C858        C866   1.388       .  A
C858        C869   1.413       .  A
C859        C860   1.372       .  A
C859        H871   1.082       .  S
C860        H872   1.081       .  S
C861        C862   1.379       .  A
C861        H873   1.082       .  S
C862        H874   1.082       .  S
C863        C864   1.373       .  A
C863        H875   1.082       .  S
C864        H876   1.080       .  S
C865        C866   1.374       .  A
C865        H877   1.082       .  S
C866        H878   1.082       .  S
C868        C958   1.496       .  S
C870        C962   1.496       .  S
N881        C886   1.356   1_545  A
N881        C885   1.348   1_545  A
N881        H913   1.045       .  S
N882        C889   1.357       .  A
N882        C890   1.358       .  A
N883        C888   1.353       .  A
N883        C887   1.351       .  A
N883        H914   1.036       .  S
N884        C891   1.350       .  A
N884        C892   1.345       .  A
C885        C893   1.384       .  A
C885       C1489   1.414       .  A
C886        C902   1.427       .  A
C886        C894   1.391       .  A
C887        C895   1.390       .  A
C887       C1296   1.425       .  A
C888        C903   1.420       .  A
C888        C896   1.386       .  A
C889        C901   1.425       .  A
C889        C897   1.388       .  A
C890        C904   1.428       .  A
C890        C898   1.386       .  A
C891        C899   1.385       .  A
C891        C902   1.412   1_545  A
C892        C900   1.387       .  A
C892       C1099   1.410       .  A
C893        C894   1.383       .  A
C893        H905   1.082       .  S
C894        H906   1.079       .  S
C895        C896   1.382       .  A
C895       H1299   1.082       .  S
C896        H908   1.082       .  S
C897        C898   1.372       .  A
C897        H909   1.080       .  S
C898        H910   1.082       .  S
C899        C900   1.379       .  A
C899        H911   1.082       .  S
C900        H912   1.082       .  S
C901        C970   1.509       .  S
C901       C1473   1.425       .  A
C902       C1327   1.524       .  S
C903        C966   1.505       .  S
C903       C1088   1.407       .  A
C904       C1279   1.413       .  A
C904        C937   1.546       .  S
H907       C1287   1.082       .  S
N915        C920   1.354       .  A
N915        C919   1.354       .  A
N915        H947   1.042       .  S
N916        C923   1.356       .  A
N916        C924   1.355       .  A
N917        C922   1.357       .  A
N917        C921   1.358       .  A
N917        H948   1.035       .  S
N918        C925   1.350       .  A
N918        C926   1.352       .  A
C919        C927   1.387       .  A
C919        C935   1.417       .  A
C920        C936   1.413       .  A
C920        C928   1.385       .  A
C921        C929   1.389       .  A
C921        C938   1.430       .  A
C922        C937   1.432       .  A
C922        C930   1.385       .  A
C923        C935   1.425       .  A
C923        C931   1.386       .  A
C924        C938   1.421       .  A
C924        C932   1.386       .  A
C925        C933   1.387       .  A
C925        C936   1.412       .  A
C926        C934   1.385       .  A
C926        C937   1.417       .  A
C927        C928   1.375       .  A
C927        H939   1.082       .  S
C928        H940   1.082       .  S
C929        C930   1.375       .  A
C929        H941   1.076       .  S
C930        H942   1.081       .  S
C931        C932   1.371       .  A
C931        H943   1.082       .  S
C932        H944   1.082       .  S
C933        C934   1.373       .  A
C933        H945   1.081       .  S
C934        H946   1.082       .  S
C935       C1294   1.542       .  S
C936        C954   1.497       .  S
C938        C950   1.505       .  S
C949        C950   1.344       .  D
C949        H951   1.083       .  S
C950       H1344   1.087       .  S
H952       C1342   1.087   1_545  S
C953        C954   1.350       .  D
C953        H955   1.086       .  S
C954       H1348   1.084       .  S
H956       C1346   1.086       .  S
C957        C958   1.348       .  D
C957        H959   1.086   1_655  S
C961        C962   1.345   1_655  D
C961        H963   1.086       .  S
C965        C994   1.484       .  S
C965        C966   1.350       .  D
C965        H967   1.085       .  S
C966       H1556   1.086       .  S
H968       C1554   1.085       .  S
C969        C993   1.488       .  S
C969       C1362   1.356   1_565  D
C969       H1167   1.085       .  S
C970       C1361   1.353       .  D
C970        H972   1.084       .  S
H971       C1165   1.085       .  S
C973        C974   1.348       .  D
C973       H1171   1.086       .  S
H975       C1169   1.085       .  S
C977        C978   1.338       .  D
C978       H1176   1.086       .  S
H980       C1174   1.086       .  S
O982       V1381   1.892   1_545  S
O983        V989   1.909   1_655  S
O983       C1385   1.266       .  A
O984        C994   1.270       .  A
O985       C1190   1.260       .  A
O986        V990   1.901       .  S
O988       V1382   1.913       .  S
O988        C991   1.268   1_655  A
V989       O1374   1.895       .  S
V989       V1186   2.087       .  T
V990       O1380   1.918   1_655  S
V990       V1185   2.089   1_566  T
C993       O1375   1.269       .  A
C994       O1181   1.263       .  A
O995       V1003   1.910       .  S
O995       C1005   1.267       .  A
O996       C1006   1.267       .  A
O997       V1395   1.910       .  S
O998       C1008   1.264       .  A
O1000      V1396   1.908   1_545  S
O1000      C1007   1.266       .  A
O1001      V1004   1.891       .  S
O1001      C1006   1.262       .  A
O1002      C1005   1.264       .  A
V1003      O1389   1.907       .  S
V1004      O1392   1.908       .  S
C1005      C1145   1.482       .  S
C1006      C1149   1.474       .  S
C1007      C1157   1.474       .  S
C1008      C1153   1.477       .  S
N1009      C1014   1.347       .  A
N1009      C1013   1.349       .  A
N1009      H1041   1.044       .  S
N1010      C1017   1.342       .  A
N1010      C1018   1.343       .  A
N1011      C1016   1.350       .  A
N1011      C1015   1.357       .  A
N1011      H1042   1.039       .  S
N1012      C1019   1.355       .  A
N1012      C1020   1.351       .  A
C1013      C1021   1.386       .  A
C1014      C1030   1.410       .  A
C1014      C1022   1.388       .  A
C1015      C1023   1.388       .  A
C1015      C1032   1.422       .  A
C1016      C1031   1.411       .  A
C1016      C1024   1.386       .  A
C1017      C1029   1.398       .  A
C1017      C1025   1.385       .  A
C1018      C1032   1.404       .  A
C1018      C1026   1.387       .  A
C1019      C1027   1.383       .  A
C1019      C1030   1.421       .  A
C1020      C1028   1.391       .  A
C1021      C1022   1.379       .  A
C1021      H1033   1.082       .  S
C1022      H1034   1.082       .  S
C1023      C1024   1.374       .  A
C1023      H1035   1.082       .  S
C1024      H1036   1.083       .  S
C1025      C1026   1.376       .  A
C1025      H1037   1.082       .  S
C1026      H1038   1.083       .  S
C1027      C1028   1.375       .  A
C1027      H1039   1.082       .  S
C1028      H1040   1.080       .  S
C1029      C1173   1.481       .  S
C1031      C1170   1.488       .  S
N1043      C1048   1.353       .  A
N1043      C1047   1.353       .  A
N1043      H1075   1.041   1_655  S
N1044      C1051   1.350       .  A
N1044      C1052   1.354       .  A
N1045      C1050   1.356   1_655  A
N1045      C1049   1.356   1_655  A
N1045      H1076   1.043       .  S
N1046      C1053   1.351       .  A
N1046      C1054   1.352       .  A
C1047      C1055   1.386       .  A
C1047      C1063   1.414       .  A
C1048      C1064   1.413       .  A
C1048      C1056   1.388       .  A
C1049      C1057   1.387       .  A
C1049      C1066   1.418       .  A
C1050      C1065   1.424   1_455  A
C1050      C1058   1.388       .  A
C1051      C1063   1.415       .  A
C1051      C1059   1.382       .  A
C1052      C1066   1.417   1_655  A
C1052      C1060   1.389       .  A
C1053      C1061   1.384       .  A
C1053      C1064   1.414       .  A
C1054      C1062   1.388       .  A
C1054      C1065   1.422       .  A
C1055      C1056   1.372       .  A
C1055      H1067   1.082       .  S
C1056      H1068   1.081       .  S
C1057      C1058   1.379       .  A
C1057      H1069   1.081       .  S
C1058      H1070   1.082       .  S
C1059      C1060   1.369       .  A
C1059      H1071   1.082       .  S
C1060      H1072   1.076       .  S
C1061      C1062   1.376       .  A
C1061      H1073   1.082       .  S
C1062      H1074   1.082       .  S
C1064      C1154   1.498       .  S
C1066      C1158   1.499       .  S
N1077      C1082   1.355       .  A
N1077      C1081   1.355       .  A
N1077      H1109   1.037       .  S
N1078      C1085   1.356       .  A
N1078      C1086   1.357       .  A
N1079      C1084   1.356       .  A
N1079      C1083   1.358       .  A
N1079      H1110   1.040   1_545  S
N1080      C1087   1.348       .  A
N1080      C1088   1.349       .  A
C1081      C1089   1.389       .  A
C1081      C1293   1.424       .  A
C1082      C1098   1.422       .  A
C1082      C1090   1.386       .  A
C1083      C1091   1.389       .  A
C1083      C1492   1.432       .  A
C1084      C1099   1.424   1_556  A
C1084      C1092   1.385       .  A
C1085      C1097   1.426       .  A
C1085      C1093   1.390       .  A
C1086      C1100   1.427       .  A
C1086      C1094   1.385       .  A
C1087      C1095   1.387       .  A
C1087      C1098   1.411       .  A
C1088      C1096   1.385       .  A
C1089      C1090   1.378       .  A
C1089      H1101   1.082       .  S
C1090      H1102   1.082       .  S
C1091      C1092   1.379       .  A
C1091      H1495   1.081       .  S
C1092      H1104   1.082       .  S
C1093      C1094   1.372       .  A
C1093      H1105   1.080       .  S
C1094      H1106   1.082       .  S
C1095      C1096   1.379       .  A
C1095      H1107   1.082       .  S
C1096      H1108   1.082       .  S
C1097      C1166   1.504       .  S
C1097      C1277   1.423   1_556  A
C1098      C1523   1.544       .  S
C1099      C1162   1.503       .  S
C1100      C1475   1.424       .  A
C1100      C1133   1.551       .  S
H1103      C1483   1.082       .  S
N1111      C1116   1.352       .  A
N1111      C1115   1.355       .  A
N1111      H1143   1.041       .  S
N1112      C1119   1.356       .  A
N1112      C1120   1.355       .  A
N1113      C1118   1.359       .  A
N1113      C1117   1.358       .  A
N1113      H1144   1.039       .  S
N1114      C1121   1.354       .  A
N1114      C1122   1.356       .  A
C1115      C1123   1.385       .  A
C1115      C1131   1.413       .  A
C1116      C1132   1.414       .  A
C1116      C1124   1.387       .  A
C1117      C1125   1.387       .  A
C1117      C1134   1.426       .  A
C1118      C1133   1.426       .  A
C1118      C1126   1.386       .  A
C1119      C1131   1.422       .  A
C1119      C1127   1.383       .  A
C1120      C1134   1.423       .  A
C1120      C1128   1.390       .  A
C1121      C1129   1.388       .  A
C1121      C1132   1.419       .  A
C1122      C1130   1.386       .  A
C1122      C1133   1.426       .  A
C1123      C1124   1.373       .  A
C1123      H1135   1.082       .  S
C1124      H1136   1.082       .  S
C1125      C1126   1.377       .  A
C1125      H1137   1.082       .  S
C1126      H1138   1.082       .  S
C1127      C1128   1.368       .  A
C1127      H1139   1.082       .  S
C1128      H1140   1.080       .  S
C1129      C1130   1.370       .  A
C1129      H1141   1.080       .  S
C1130      H1142   1.082       .  S
C1131      C1490   1.542       .  S
C1132      C1150   1.497       .  S
C1134      C1146   1.506       .  S
C1145      C1146   1.348       .  D
C1145      H1147   1.086       .  S
C1146      H1540   1.083       .  S
H1148      C1538   1.087       .  S
C1149      C1150   1.351       .  D
C1149      H1151   1.086       .  S
C1150      H1544   1.084       .  S
H1152      C1542   1.083       .  S
C1153      C1154   1.348       .  D
C1153      H1155   1.086   1_655  S
C1157      C1158   1.345   1_655  D
C1157      H1159   1.083       .  S
C1161      C1162   1.347   1_556  D
C1161      H1163   1.085   1_545  S
C1162      H1360   1.085       .  S
H1164      C1358   1.083       .  S
C1165      C1558   1.346       .  D
C1166      C1557   1.352   1_556  D
C1166      H1168   1.083       .  S
C1169      C1170   1.333   1_554  D
C1173      C1174   1.337   1_556  D
O1178      C1384   1.260       .  A
O1179      V1185   1.900   1_565  S
O1180      C1190   1.270   1_554  A
O1182      V1186   1.910   1_655  S
O1182      C1385   1.266       .  A
O1184      C1187   1.266       .  A
C1188      O1374   1.262       .  A
C1189      O1378   1.263   1_554  A
C1189      C1557   1.480       .  S
C1190      C1553   1.474       .  S
O1191      V1199   1.899       .  S
O1191      C1201   1.265       .  A
O1192      C1202   1.267       .  A
O1194      C1204   1.263       .  A
O1196      C1203   1.266       .  A
O1197      V1200   1.889       .  S
O1197      C1202   1.261       .  A
O1198      C1201   1.264       .  A
C1201      C1341   1.472       .  S
C1202      C1345   1.470       .  S
C1203      C1353   1.480       .  S
C1204      C1349   1.471       .  S
N1205      C1210   1.351       .  A
N1205      C1209   1.351       .  A
N1205      H1237   1.044       .  S
N1206      C1213   1.342       .  A
N1206      C1214   1.341       .  A
N1207      C1212   1.356       .  A
N1207      C1211   1.359       .  A
N1207      H1238   1.038       .  S
N1208      C1215   1.356       .  A
N1208      C1216   1.353       .  A
C1209      C1217   1.387       .  A
C1209      C1421   1.415   1_554  A
C1210      C1226   1.416       .  A
C1210      C1218   1.388       .  A
C1211      C1219   1.387       .  A
C1211      C1228   1.430       .  A
C1212      C1227   1.423       .  A
C1212      C1220   1.387       .  A
C1213      C1225   1.399       .  A
C1213      C1221   1.386       .  A
C1214      C1228   1.404       .  A
C1214      C1222   1.388       .  A
C1215      C1223   1.383       .  A
C1215      C1226   1.427       .  A
C1216      C1224   1.391       .  A
C1216      C1423   1.430   1_554  A
C1217      C1218   1.380       .  A
C1217      H1229   1.082       .  S
C1218      H1230   1.082       .  S
C1219      C1220   1.378       .  A
C1219      H1231   1.082       .  S
C1220      H1232   1.082       .  S
C1221      C1222   1.377       .  A
C1221      H1233   1.082       .  S
C1222      H1234   1.083       .  S
C1223      C1224   1.375       .  A
C1223      H1235   1.082       .  S
C1224      H1236   1.075       .  S
C1225      C1369   1.484       .  S
C1225      C1405   1.415       .  A
C1227      C1366   1.505       .  S
C1227      C1412   1.428       .  A
N1239      C1244   1.355       .  A
N1239      C1243   1.355       .  A
N1239      H1271   1.041   1_655  S
N1240      C1247   1.355       .  A
N1240      C1248   1.357       .  A
N1241      C1246   1.358       .  A
N1241      C1245   1.355       .  A
N1241      H1272   1.043   1_455  S
N1242      C1249   1.349       .  A
N1242      C1250   1.353       .  A
C1243      C1251   1.385       .  A
C1243      C1259   1.417   1_655  A
C1244      C1260   1.415       .  A
C1244      C1252   1.388       .  A
C1245      C1253   1.387       .  A
C1245      C1262   1.419       .  A
C1246      C1261   1.424       .  A
C1246      C1254   1.387       .  A
C1247      C1259   1.427       .  A
C1247      C1255   1.385   1_455  A
C1248      C1262   1.424       .  A
C1248      C1256   1.388   1_455  A
C1249      C1257   1.386       .  A
C1249      C1260   1.414       .  A
C1250      C1258   1.386       .  A
C1250      C1261   1.417   1_655  A
C1251      C1252   1.371       .  A
C1251      H1263   1.082       .  S
C1252      H1264   1.080       .  S
C1253      C1254   1.379       .  A
C1253      H1265   1.081       .  S
C1254      H1266   1.082       .  S
C1255      C1256   1.374       .  A
C1255      H1267   1.082       .  S
C1256      H1268   1.078       .  S
C1257      C1258   1.374       .  A
C1257      H1269   1.082       .  S
C1258      H1270   1.082       .  S
C1260      C1350   1.496       .  S
C1262      C1354   1.504       .  S
N1273      C1278   1.357       .  A
N1273      C1277   1.355       .  A
N1273      H1305   1.039       .  S
N1274      C1281   1.356       .  A
N1274      C1282   1.357       .  A
N1275      C1280   1.355       .  A
N1275      C1279   1.353       .  A
N1275      H1306   1.042       .  S
N1276      C1283   1.353       .  A
N1276      C1284   1.351       .  A
C1277      C1285   1.389       .  A
C1278      C1294   1.420       .  A
C1278      C1286   1.385       .  A
C1279      C1287   1.386       .  A
C1280      C1295   1.411       .  A
C1280      C1288   1.384       .  A
C1281      C1293   1.423       .  A
C1281      C1289   1.388       .  A
C1282      C1296   1.421       .  A
C1282      C1290   1.385       .  A
C1283      C1291   1.384       .  A
C1283      C1294   1.417       .  A
C1284      C1292   1.387       .  A
C1284      C1491   1.413       .  A
C1285      C1286   1.374       .  A
C1285      H1297   1.082       .  S
C1286      H1298   1.082       .  S
C1287      C1288   1.375       .  A
C1288      H1300   1.082       .  S
C1289      C1290   1.378       .  A
C1289      H1301   1.081       .  S
C1290      H1302   1.082       .  S
C1291      C1292   1.369       .  A
C1291      H1303   1.082       .  S
C1292      H1304   1.081       .  S
C1293      C1362   1.511       .  S
C1295      C1358   1.500       .  S
C1295      C1480   1.413       .  A
C1296      C1329   1.551       .  S
N1307      C1312   1.351       .  A
N1307      C1311   1.351       .  A
N1307      H1339   1.045   1_565  S
N1308      C1315   1.359       .  A
N1308      C1316   1.347       .  A
N1309      C1314   1.365   1_545  A
N1309      C1313   1.361   1_545  A
N1309      H1340   1.043       .  S
N1310      C1317   1.355       .  A
N1310      C1318   1.351       .  A
C1311      C1319   1.387       .  A
C1311      C1327   1.401       .  A
C1312      C1328   1.393       .  A
C1312      C1320   1.384       .  A
C1313      C1321   1.384       .  A
C1313      C1330   1.423       .  A
C1314      C1329   1.436   1_565  A
C1314      C1322   1.389       .  A
C1315      C1327   1.424       .  A
C1315      C1323   1.381       .  A
C1316      C1330   1.424       .  A
C1316      C1324   1.393       .  A
C1317      C1325   1.379   1_545  A
C1317      C1328   1.414   1_545  A
C1318      C1326   1.391   1_545  A
C1318      C1329   1.432       .  A
C1319      C1320   1.363       .  A
C1319      H1331   1.083       .  S
C1320      H1332   1.083       .  S
C1321      C1322   1.376       .  A
C1321      H1333   1.082       .  S
C1322      H1334   1.082       .  S
C1323      C1324   1.372       .  A
C1323      H1335   1.081       .  S
C1324      H1336   1.079   1_565  S
C1325      C1326   1.371       .  A
C1325      H1337   1.079       .  S
C1326      H1338   1.078       .  S
C1328      C1346   1.486   1_565  S
C1330      C1342   1.500       .  S
C1341      C1342   1.342       .  D
C1341      H1343   1.086       .  S
C1345      C1346   1.341   1_565  D
C1345      H1347   1.086       .  S
C1349      C1350   1.346       .  D
C1349      H1351   1.086   1_655  S
C1353      C1354   1.347   1_655  D
C1353      H1355   1.084       .  S
C1357      C1386   1.480       .  S
C1357      C1358   1.348       .  D
C1357      H1359   1.086       .  S
C1361      C1385   1.484       .  S
C1361      H1559   1.086       .  S
C1362      H1364   1.085       .  S
H1363      C1557   1.086       .  S
C1365      C1366   1.344       .  D
C1365      H1563   1.083       .  S
H1367      C1561   1.082       .  S
C1369      C1370   1.340       .  D
C1370      H1568   1.086       .  S
H1372      C1566   1.086       .  S
O1375      V1381   1.917   1_655  S
O1376      C1386   1.266       .  A
O1378      V1382   1.896       .  S
O1380      C1383   1.269   1_556  A
O1387      V1395   1.905   1_565  S
O1387      C1397   1.266       .  A
O1388      C1398   1.269       .  A
O1390      C1400   1.261   1_455  A
O1392      C1399   1.265       .  A
O1393      V1396   1.892       .  S
O1393      C1398   1.262       .  A
O1394      C1397   1.264       .  A
C1397      C1537   1.475       .  S
C1398      C1541   1.484       .  S
C1399      C1549   1.483       .  S
C1400      C1545   1.468       .  S
N1401      C1406   1.351       .  A
N1401      C1405   1.353       .  A
N1401      H1433   1.044       .  S
N1402      C1409   1.344       .  A
N1402      C1410   1.344       .  A
N1403      C1408   1.351       .  A
N1403      C1407   1.360       .  A
N1403      H1434   1.037       .  S
N1404      C1411   1.355       .  A
N1404      C1412   1.355       .  A
C1405      C1413   1.386       .  A
C1406      C1422   1.419       .  A
C1406      C1414   1.388       .  A
C1407      C1415   1.388       .  A
C1407      C1424   1.429       .  A
C1408      C1423   1.420       .  A
C1408      C1416   1.387       .  A
C1409      C1421   1.398       .  A
C1409      C1417   1.384       .  A
C1410      C1424   1.405       .  A
C1410      C1418   1.386       .  A
C1411      C1419   1.383       .  A
C1411      C1422   1.426       .  A
C1412      C1420   1.389       .  A
C1413      C1414   1.382       .  A
C1413      H1425   1.082       .  S
C1414      H1426   1.082       .  S
C1415      C1416   1.378       .  A
C1415      H1427   1.082       .  S
C1416      H1428   1.083       .  S
C1417      C1418   1.377       .  A
C1417      H1429   1.082       .  S
C1418      H1430   1.082       .  S
C1419      C1420   1.373       .  A
C1419      H1431   1.082       .  S
C1420      H1432   1.076       .  S
C1421      C1565   1.487       .  S
C1423      C1562   1.498       .  S
N1435      C1440   1.353       .  A
N1435      C1439   1.353       .  A
N1435      H1467   1.040   1_655  S
N1436      C1443   1.353       .  A
N1436      C1444   1.356       .  A
N1437      C1442   1.357       .  A
N1437      C1441   1.356       .  A
N1437      H1468   1.042   1_455  S
N1438      C1445   1.349       .  A
N1438      C1446   1.352       .  A
C1439      C1447   1.386       .  A
C1439      C1455   1.415   1_655  A
C1440      C1456   1.412       .  A
C1440      C1448   1.388       .  A
C1441      C1449   1.387       .  A
C1441      C1458   1.418       .  A
C1442      C1457   1.424       .  A
C1442      C1450   1.387       .  A
C1443      C1455   1.425       .  A
C1443      C1451   1.386   1_455  A
C1444      C1458   1.422       .  A
C1444      C1452   1.387   1_455  A
C1445      C1453   1.385       .  A
C1445      C1456   1.414       .  A
C1446      C1454   1.387       .  A
C1446      C1457   1.419   1_655  A
C1447      C1448   1.371       .  A
C1447      H1459   1.082       .  S
C1448      H1460   1.081       .  S
C1449      C1450   1.377       .  A
C1449      H1461   1.081       .  S
C1450      H1462   1.082       .  S
C1451      C1452   1.375       .  A
C1451      H1463   1.082       .  S
C1452      H1464   1.078       .  S
C1453      C1454   1.375       .  A
C1453      H1465   1.082       .  S
C1454      H1466   1.082       .  S
C1456      C1546   1.489       .  S
C1458      C1550   1.505       .  S
N1469      C1474   1.357       .  A
N1469      C1473   1.357       .  A
N1469      H1501   1.040       .  S
N1470      C1477   1.349       .  A
N1470      C1478   1.349       .  A
N1471      C1476   1.355       .  A
N1471      C1475   1.356       .  A
N1471      H1502   1.039       .  S
N1472      C1479   1.352       .  A
N1472      C1480   1.353       .  A
C1473      C1481   1.388       .  A
C1474      C1490   1.422       .  A
C1474      C1482   1.385       .  A
C1475      C1483   1.388       .  A
C1476      C1491   1.421   1_556  A
C1476      C1484   1.386       .  A
C1477      C1489   1.411   1_546  A
C1477      C1485   1.387       .  A
C1478      C1492   1.418       .  A
C1478      C1486   1.388       .  A
C1479      C1487   1.385       .  A
C1479      C1490   1.418       .  A
C1480      C1488   1.387       .  A
C1481      C1482   1.375       .  A
C1481      H1493   1.082       .  S
C1482      H1494   1.082       .  S
C1483      C1484   1.378       .  A
C1484      H1496   1.082       .  S
C1485      C1486   1.379       .  A
C1485      H1497   1.082       .  S
C1486      H1498   1.083       .  S
C1487      C1488   1.369       .  A
C1487      H1499   1.082       .  S
C1488      H1500   1.080       .  S
C1489      C1558   1.494       .  S
C1491      C1554   1.495       .  S
C1492      C1525   1.547   1_545  S
N1503      C1508   1.354       .  A
N1503      C1507   1.354       .  A
N1503      H1535   1.043   1_565  S
N1504      C1511   1.359   1_565  A
N1504      C1512   1.358   1_565  A
N1505      C1510   1.356       .  A
N1505      C1509   1.355       .  A
N1505      H1536   1.043   1_565  S
N1506      C1513   1.356       .  A
N1506      C1514   1.358       .  A
C1507      C1515   1.387       .  A
C1507      C1523   1.416   1_565  A
C1508      C1524   1.412       .  A
C1508      C1516   1.385       .  A
C1509      C1517   1.387       .  A
C1509      C1526   1.414       .  A
C1510      C1525   1.416       .  A
C1510      C1518   1.386       .  A
C1511      C1523   1.432       .  A
C1511      C1519   1.384       .  A
C1512      C1526   1.422   1_545  A
C1512      C1520   1.383       .  A
C1513      C1521   1.387       .  A
C1513      C1524   1.420       .  A
C1514      C1522   1.386       .  A
C1514      C1525   1.427       .  A
C1515      C1516   1.375       .  A
C1515      H1527   1.082       .  S
C1516      H1528   1.082       .  S
C1517      C1518   1.374       .  A
C1517      H1529   1.082       .  S
C1518      H1530   1.082       .  S
C1519      C1520   1.360       .  A
C1519      H1531   1.077       .  S
C1520      H1532   1.078       .  S
C1521      C1522   1.369       .  A
C1521      H1533   1.080       .  S
C1522      H1534   1.081       .  S
C1524      C1542   1.503       .  S
C1526      C1538   1.503   1_565  S
C1537      C1538   1.345   1_565  D
C1537      H1539   1.085       .  S
C1541      C1542   1.354       .  D
C1541      H1543   1.086       .  S
C1545      C1546   1.343       .  D
C1545      H1547   1.086   1_655  S
C1549      C1550   1.346   1_655  D
C1549      H1551   1.084       .  S
C1553      C1554   1.343   1_556  D
C1553      H1555   1.087       .  S
C1558      H1560   1.087   1_554  S
C1561      C1562   1.337   1_554  D
C1565      C1566   1.336   1_556  D
