geometry optimzed in LAMMPS
_audit_creation_date              2020-11-30 
_audit_creation_method            'lammps2cif' 
_symmetry_space_group_name_H-M    'P1' 
_symmetry_Int_Tables_number       1 
_symmetry_cell_setting            triclinic 
loop_ 
_symmetry_equiv_pos_as_xyz 
  x,y,z 
_cell_length_a                    23.81070596 
_cell_length_b                    24.433302763729454 
_cell_length_c                    23.651915959627008 
_cell_angle_alpha                 90.45496175422522 
_cell_angle_beta                  90.58040958730253 
_cell_angle_gamma                 89.99423388778821 
loop_ 
_atom_site_label 
_atom_site_type_symbol 
_atom_site_fract_x 
_atom_site_fract_y 
_atom_site_fract_z 
_atom_site_charge 
O1          O  0.50968561  0.45119818  0.13139197    -0.79400
O2          O  0.55685684  0.55768986  0.42513122    -0.79400
O3          O  0.58845023  0.44902484  0.46055291    -0.79500
O4          O  0.57835739  0.56443368  0.05569525    -0.79400
O5          O  0.53110039  0.45636231  0.39030923    -0.79500
O6          O  0.51373343  0.56038171  0.12204004    -0.79400
O7          O  0.54305175  0.63485816  0.47341577    -0.79400
O8          O  0.58042193  0.44442286  0.07263770    -0.79500
C9          C  0.56050454  0.43879243  0.12111762     1.10300
C10         C  0.56951909  0.60792559  0.43641786     1.10200
C11         C  0.57829129  0.44182537  0.40929712     1.10300
C12         C  0.56351815  0.57210400  0.10647150     1.10200
O13         O  0.40889341  0.55769384  0.05373095    -0.79400
O14         O  0.42110938  0.46065984  0.43445043    -0.79500
O15         O  0.47590572  0.38493126  0.05898132    -0.79400
O16         O  0.44655484  0.58590331  0.44286888    -0.79400
O17         O  0.46231699  0.53834157  0.36420887    -0.79500
O18         O  0.40949706  0.44744880  0.06027760    -0.79400
O19         O  0.47379152  0.61930631  0.04799848    -0.79400
O20         O  0.47842864  0.39025609  0.44642763    -0.79500
Co21       Co  0.46049606  0.50413348  0.08778122     1.51500
Co22       Co  0.48524322  0.50997841  0.43426925     1.51700
Co23       Co  0.53075064  0.41845850  0.50931727     1.51600
Co24       Co  0.51988925  0.57245981  0.99733431     1.51500
O25         O  0.49915352  0.49629939  0.01333677    -1.41400
C26         C  0.42406986  0.60656081  0.05982435     1.10200
C27         C  0.43266020  0.41064512  0.42662290     1.10300
C28         C  0.42540348  0.39903188  0.06824440     1.10200
C29         C  0.43831204  0.57759579  0.38929551     1.10200
C30         C  0.63595829  0.87704674  0.11545817     0.43200
N31         N  0.60650984  0.94041764  0.06029687     0.02100
C32         C  0.36321492  0.09603301  0.09162750    -0.05800
H33         H  0.31993955  0.90987059  0.07145193     0.07600
C34         C  0.40699387  0.91057812  0.36466071    -0.06200
Co35       Co  0.50875422  0.00240542  0.10931869     0.74200
N36         N  0.40261999  0.94544310  0.07530464    -0.25300
Co37       Co  0.40023255  0.00325832  0.01186878     0.74100
C38         C  0.35656051  0.88756224  0.39039352     0.43300
N39         N  0.55608642  0.94467541  0.39198464     0.01700
N40         N  0.39357810  0.94586920  0.44750951     0.01800
N41         N  0.43358264  0.09613391  0.15655757    -0.46200
H42         H  0.56799095  0.89654448  0.18134748     0.07500
N43         N  0.44373960  0.94393654  0.11312409     0.02100
N44         N  0.39448979  0.06457497  0.44864574     0.01800
C45         C  0.35746138  0.12196068  0.39146198     0.43400
N46         N  0.59798202  0.94582084  0.42906170    -0.24800
C47         C  0.59012249  0.09889557  0.14112674    -0.05700
N48         N  0.64567369  0.90218575  0.06597782    -0.45900
N49         N  0.35197713  0.09902137  0.44258577    -0.46100
C50         C  0.63990361  0.12337168  0.11591234     0.43200
N51         N  0.44530574  0.06309757  0.11326345     0.02100
N52         N  0.59836262  0.06301814  0.43023748    -0.24800
N53         N  0.57140080  0.94200418  0.10335981    -0.25300
N54         N  0.55648675  0.06405878  0.39312026     0.01700
H55         H  0.68003370  0.10099412  0.43301464     0.07600
H56         H  0.42388508  0.10401526  0.32349663     0.07600
N57         N  0.40432379  0.06221041  0.07522641    -0.25400
N58         N  0.42737313  0.94614539  0.40342075    -0.25000
N59         N  0.60839736  0.06028199  0.06072303     0.02100
C60         C  0.37975352  0.89077211  0.14561316     0.43500
C61         C  0.63884895  0.91218682  0.41153874    -0.06200
N62         N  0.42810620  0.06353375  0.40440890    -0.25000
H63         H  0.42328511  0.90424809  0.32257762     0.07600
N64         N  0.43151064  0.91176199  0.15633739    -0.46200
H65         H  0.67975560  0.90823848  0.43135812     0.07600
C66         C  0.61842351  0.11968494  0.36008946     0.43300
C67         C  0.58708915  0.90360476  0.14073416    -0.05700
Co68       Co  0.60451769  0.00024919  0.99728734     0.73800
N69         N  0.56690120  0.91165709  0.34841464    -0.45900
C70         C  0.38243360  0.11848133  0.14562090     0.43600
N71         N  0.64871596  0.09739862  0.06634825    -0.45900
Co72       Co  0.49194064  0.00455322  0.39736754     0.73900
C73         C  0.40779992  0.09856612  0.36571427    -0.06200
C74         C  0.36065984  0.91302479  0.09188015    -0.05800
N75         N  0.57321979  0.06050103  0.10369615    -0.25300
N76         N  0.35102616  0.91137397  0.44143556    -0.46100
H77         H  0.32268047  0.09987333  0.07100793     0.07600
C78         C  0.63908434  0.09693574  0.41324232    -0.06200
Cl79       Cl  0.50226228  0.00164141  0.00461631    -0.49200
C80         C  0.61845244  0.88962485  0.35794884     0.43300
H81         H  0.57111160  0.10730226  0.18164356     0.07500
N82         N  0.56707011  0.09726901  0.35022097    -0.45900
C83         C  0.87052589  0.38105952  0.12049442     0.43200
N84         N  0.93333300  0.40807670  0.06211128     0.02100
C85         C  0.09420744  0.64600927  0.08280977    -0.05800
H86         H  0.90347301  0.68900316  0.02834380     0.07600
C87         C  0.92141425  0.57196675  0.34738734    -0.06200
Co88       Co  0.99027037  0.51128706  0.10257749     0.74200
N89         N  0.93837317  0.60990957  0.04745672    -0.25300
Co90       Co  0.00581906  0.60585074  0.99278508     0.74100
C91         C  0.89627251  0.62498651  0.35981182     0.43300
N92         N  0.95598800  0.43771975  0.39472000     0.01700
N93         N  0.94882032  0.60101445  0.43001998     0.01800
N94         N  0.08423463  0.58199309  0.15060678    -0.46200
H95         H  0.87994758  0.45928099  0.17454875     0.07500
N96         N  0.93247502  0.57600487  0.09041043     0.02100
N97         N  0.06968593  0.60342468  0.44573638     0.01800
C98         C  0.13142937  0.63520433  0.38880453     0.43400
N99         N  0.95256217  0.39928097  0.43366648    -0.24800
C100        C  0.07924855  0.43674423  0.16159177    -0.05700
N101        N  0.89999082  0.36628759  0.07434343    -0.45900
N102        N  0.10303451  0.64595284  0.43672526    -0.46100
C103        C  0.10262850  0.38239792  0.15133495     0.43200
N104        N  0.05278562  0.57068105  0.10555900     0.02100
N105        N  0.07170251  0.40099576  0.44922894    -0.24800
N106        N  0.92864802  0.44926510  0.09851383    -0.25300
N107        N  0.07670876  0.43867386  0.40959621     0.01700
H108        H  0.10919484  0.32144808  0.46069302     0.07600
H109        H  0.12135105  0.56116937  0.32864336     0.07600
N110        N  0.05781303  0.60737677  0.06506191    -0.25400
N111        N  0.95396889  0.56096306  0.39248928    -0.25000
N112        N  0.05346857  0.40690805  0.07885580     0.02100
C113        C  0.87663705  0.64319242  0.10755895     0.43500
C114        C  0.91874642  0.35927231  0.41380648    -0.06200
N115        N  0.07415958  0.56497768  0.40628547    -0.25000
H116        H  0.92005761  0.54848668  0.30845531     0.07600
N117        N  0.89661712  0.59539476  0.12840514    -0.46200
H118        H  0.91073677  0.32082900  0.43455903     0.07600
C119        C  0.13569238  0.37587188  0.38707566     0.43300
C120        C  0.88921475  0.43618847  0.13655225    -0.05700
Co121      Co  0.00143832  0.40429805  0.00658796     0.73800
N122        N  0.92591387  0.42617910  0.34871253    -0.45900
C123        C  0.11151719  0.62882529  0.13948068     0.43600
N124        N  0.08465371  0.36624773  0.09929539    -0.45900
Co125      Co  0.01552579  0.50040692  0.40058639     0.73900
C126        C  0.11216772  0.58161836  0.36824216    -0.06200
C127        C  0.90366499  0.65250874  0.05391715    -0.05800
N128        N  0.04881299  0.44812661  0.11501687    -0.25300
N129        N  0.91530141  0.64085699  0.41161080    -0.46100
H130        H  0.10448157  0.68298707  0.06032557     0.07600
C131        C  0.10751465  0.35998429  0.43855442    -0.06200
Cl132      Cl  0.00325303  0.50509460  0.99966588    -0.49200
C133        C  0.90135199  0.37735091  0.35738352     0.43300
H134        H  0.08035495  0.46108404  0.19995793     0.07500
N135        N  0.11424029  0.42461377  0.37096003    -0.45900
C136        C  0.24051656  0.24579594  0.19575696     0.46200
H137        H  0.23790817  0.24450145  0.14877034    -0.02900
C138        C  0.24820357  0.24941037  0.30515354     0.46200
H139        H  0.25060460  0.25248821  0.35181008    -0.02900
C140        C  0.28468918  0.28586416  0.21842022    -0.16500
C141        C  0.18625642  0.26528530  0.22366273    -0.16300
C142        C  0.25930992  0.19131392  0.22160960    -0.16700
C143        C  0.28956759  0.28724264  0.27614304    -0.16700
C144        C  0.19046070  0.26812137  0.28174249    -0.16200
C145        C  0.26325116  0.19260988  0.27989762    -0.16500
C146        C  0.74951844  0.25744623  0.20006173     0.46200
H147        H  0.74493584  0.26052454  0.15354962    -0.02900
C148        C  0.76027138  0.25333798  0.30965153     0.46200
H149        H  0.76416137  0.25238121  0.35653580    -0.02900
C150        C  0.71383226  0.29905090  0.23160242    -0.16500
C151        C  0.73090542  0.20187578  0.22570744    -0.16300
C152        C  0.80945647  0.27145717  0.22127038    -0.16700
C153        C  0.71935430  0.29684838  0.28899234    -0.16700
C154        C  0.73619217  0.20054587  0.28384585    -0.16200
C155        C  0.81511865  0.26752195  0.27932417    -0.16500
C156        C  0.25021568  0.75676320  0.30104534     0.46200
H157        H  0.25474760  0.75302601  0.34729435    -0.02900
C158        C  0.23928482  0.76498757  0.19218315     0.46200
H159        H  0.23477165  0.76831278  0.14545218    -0.02900
C160        C  0.29110119  0.72056090  0.26797441    -0.16500
C161        C  0.19215931  0.73729517  0.27871479    -0.16300
C162        C  0.26300160  0.81501475  0.27850495    -0.16700
C163        C  0.28505052  0.72510474  0.21039111    -0.16700
C164        C  0.18661887  0.74347328  0.22100831    -0.16200
C165        C  0.25743746  0.81845447  0.22055981    -0.16500
C166        C  0.75025894  0.74856610  0.20242554     0.46200
H167        H  0.74427335  0.74405885  0.15638003    -0.02900
C168        C  0.76145484  0.75967542  0.31114657     0.46200
H169        H  0.76605047  0.76412477  0.35781395    -0.02900
C170        C  0.71309516  0.70947807  0.23563293    -0.16500
C171        C  0.81024035  0.73432575  0.22457702    -0.16300
C172        C  0.73274470  0.80596895  0.22494725    -0.16700
C173        C  0.71943331  0.71571492  0.29304256    -0.16700
C174        C  0.81565388  0.74099239  0.28257149    -0.16200
C175        C  0.73862941  0.81111991  0.28263425    -0.16500
C176        C  0.14541080  0.71416386  0.18446174    -0.15700
C177        C  0.14443039  0.65924552  0.18231607    -0.30900
H178        H  0.12292321  0.73756023  0.15261861     0.13300
H179        H  0.16822946  0.63573672  0.21315957     0.13900
C180        C  0.16865245  0.67510744  0.36038338    -0.15700
C181        C  0.15378016  0.70038532  0.31173715    -0.30900
H182        H  0.20871676  0.68333797  0.38069781     0.13300
H183        H  0.11278781  0.69093905  0.29359141     0.13900
C184        C  0.17225058  0.34090071  0.35233684    -0.15700
C185        C  0.15189808  0.30172588  0.31719645    -0.30900
H186        H  0.21703340  0.34810528  0.35566143     0.13300
H187        H  0.10682158  0.29718998  0.31135035     0.13900
C188        C  0.14427878  0.29506238  0.18759082    -0.15700
C189        C  0.13562752  0.34947218  0.19269220    -0.30900
H190        H  0.12763803  0.27372179  0.15064132     0.13300
H191        H  0.15471185  0.37155929  0.22792446     0.13900
C192        C  0.84950749  0.30358243  0.18558341    -0.15700
C193        C  0.83169624  0.34476563  0.15176671    -0.30900
H194        H  0.89430959  0.29690908  0.19131302     0.13300
H195        H  0.78738513  0.35494078  0.14986747     0.13900
C196        C  0.86016274  0.29360898  0.31404088    -0.15700
C197        C  0.86760093  0.34814729  0.31387075    -0.30900
H198        H  0.87918338  0.26945198  0.34744526     0.13300
H199        H  0.84682292  0.37266676  0.28175593     0.13900
C200        C  0.85774554  0.71195780  0.31918355    -0.15700
C201        C  0.86024832  0.65679000  0.32031278    -0.30900
H202        H  0.88078796  0.73566671  0.35074026     0.13300
H203        H  0.83565553  0.63340400  0.28964197     0.13900
C204        C  0.84095546  0.68340933  0.13722407    -0.15700
C205        C  0.84976788  0.69845300  0.19151719    -0.30900
H206        H  0.80870077  0.70263085  0.11179720     0.13300
H207        H  0.88638840  0.68175253  0.21292458     0.13900
C208        C  0.64972154  0.15349286  0.31874931    -0.15700
C209        C  0.70595383  0.16185637  0.32196000    -0.30900
H210        H  0.62564751  0.17206827  0.28472719     0.13300
H211        H  0.72955263  0.14553280  0.35746418     0.13900
C212        C  0.69819727  0.15900227  0.19395549    -0.15700
C213        C  0.67830969  0.16454764  0.14092983    -0.30900
H214        H  0.68745267  0.12175691  0.21616613     0.13300
H215        H  0.68992802  0.19892630  0.11496787     0.13900
C216        C  0.34895807  0.15073211  0.18681728    -0.15700
C217        C  0.29210672  0.15334986  0.18455991    -0.30900
H218        H  0.37159971  0.17263647  0.22002272     0.13300
H219        H  0.26943173  0.13278508  0.15055233     0.13900
C220        C  0.29831549  0.15172456  0.31147823    -0.15700
C221        C  0.31456902  0.15773683  0.36579900    -0.30900
H222        H  0.31453713  0.11666462  0.28841661     0.13300
H223        H  0.29652079  0.18875560  0.39289853     0.13900
C224        C  0.67416760  0.83649319  0.14146626    -0.15700
C225        C  0.69926262  0.84680020  0.19165344    -0.30900
H226        H  0.68109960  0.79848738  0.11874499     0.13300
H227        H  0.69188736  0.88659915  0.21106860     0.13900
C228        C  0.65059373  0.85650778  0.31621821    -0.15700
C229        C  0.70729197  0.85138641  0.31855299    -0.30900
H230        H  0.62691939  0.83503985  0.28344501     0.13300
H231        H  0.73061499  0.87102661  0.35268930     0.13900
C232        C  0.29730491  0.85634040  0.31096721    -0.15700
C233        C  0.31405533  0.85071894  0.36496214    -0.30900
H234        H  0.31246551  0.89198243  0.28866038     0.13300
H235        H  0.29632707  0.81966937  0.39180557     0.13900
C236        C  0.34642086  0.85897613  0.18641080    -0.15700
C237        C  0.28962178  0.85734406  0.18488452    -0.30900
H238        H  0.36920320  0.83618148  0.21850272     0.13300
H239        H  0.26674088  0.87865701  0.15185151     0.13900
C240        C  0.33717113  0.62943370  0.27924313    -0.12600
C241        C  0.33073130  0.68394655  0.29700372     0.09500
C242        C  0.35956663  0.70291657  0.34520884    -0.12600
C243        C  0.39393467  0.66779602  0.37577183    -0.12600
C244        C  0.40068660  0.61349739  0.35786120     0.09500
C245        C  0.37267786  0.59451783  0.30908325    -0.12600
H246        H  0.31400106  0.61355588  0.24304571     0.13500
H247        H  0.35570741  0.74486782  0.35920765     0.13500
H248        H  0.41596481  0.68333421  0.41288196     0.13500
H249        H  0.37734183  0.55254874  0.29484694     0.13500
C250        C  0.37884485  0.70623421  0.17019781    -0.12600
C251        C  0.32064057  0.69852263  0.16840078     0.09500
C252        C  0.29595758  0.66637192  0.12568265    -0.12600
C253        C  0.32972291  0.63868140  0.08730738    -0.12600
C254        C  0.38820596  0.64439491  0.09056009     0.09500
C255        C  0.41256293  0.67960457  0.13102260    -0.12600
H256        H  0.39808682  0.73191944  0.20252795     0.13500
H257        H  0.25086835  0.66095544  0.12352548     0.13500
H258        H  0.31046466  0.61133942  0.05647294     0.13500
H259        H  0.45775940  0.68378671  0.13460320     0.13500
C260        C  0.68278102  0.62918782  0.33152144    -0.12600
C261        C  0.68797320  0.68605444  0.33494216     0.09500
C262        C  0.66059251  0.71591707  0.37709144    -0.12600
C263        C  0.62393105  0.68971201  0.41263533    -0.12600
C264        C  0.61465046  0.63350346  0.40603740     0.09500
C265        C  0.64565639  0.60285099  0.36679153    -0.12600
H266        H  0.70547357  0.60573052  0.30009980     0.13500
H267        H  0.66520859  0.75981046  0.38070418     0.13500
H268        H  0.60086708  0.71390089  0.44317740     0.13500
H269        H  0.63969471  0.55912291  0.36186089     0.13500
C270        C  0.65995537  0.60139845  0.13402964    -0.12600
C271        C  0.60227367  0.60080506  0.14539503     0.09500
C272        C  0.58146119  0.63329486  0.18981637    -0.12600
C273        C  0.61747474  0.66824795  0.22006271    -0.12600
C274        C  0.67482682  0.67017935  0.20705175     0.09500
C275        C  0.69587422  0.63565000  0.16475938    -0.12600
H276        H  0.67706401  0.57642938  0.10029217     0.13500
H277        H  0.53701323  0.63389133  0.19909384     0.13500
H278        H  0.60033658  0.69493119  0.25238840     0.13500
H279        H  0.74004897  0.63564069  0.15495442     0.13500
C280        C  0.70850261  0.37176844  0.35900523    -0.12600
C281        C  0.68450440  0.32973876  0.32642299     0.09500
C282        C  0.62609041  0.32480966  0.32150488    -0.12600
C283        C  0.59165873  0.36398092  0.34559252    -0.12600
C284        C  0.61535138  0.40692779  0.37704432     0.09500
C285        C  0.67376479  0.41006739  0.38505549    -0.12600
H286        H  0.75369392  0.37590215  0.36257620     0.13500
H287        H  0.60738677  0.29189222  0.29679379     0.13500
H288        H  0.54650722  0.35984107  0.34112082     0.13500
H289        H  0.69222771  0.44233614  0.41085128     0.13500
C290        C  0.68262464  0.39286624  0.20706911    -0.12600
C291        C  0.67473488  0.33606059  0.20339055     0.09500
C292        C  0.62601096  0.31442594  0.17884230    -0.12600
C293        C  0.58544248  0.34943553  0.15732716    -0.12600
C294        C  0.59348642  0.40616918  0.15972028     0.09500
C295        C  0.64233416  0.42797734  0.18437299    -0.12600
H296        H  0.72017142  0.40967915  0.22679899     0.13500
H297        H  0.61932964  0.27058538  0.17680405     0.13500
H298        H  0.54962743  0.33207851  0.13520286     0.13500
H299        H  0.65007031  0.47166512  0.18402080     0.13500
C300        C  0.35594657  0.40534369  0.35405587    -0.12600
C301        C  0.39647677  0.37850834  0.38771983     0.09500
C302        C  0.40467668  0.32203443  0.38034275    -0.12600
C303        C  0.37148607  0.29273370  0.34164299    -0.12600
C304        C  0.33044834  0.31956472  0.30922630     0.07100
C305        C  0.32346970  0.37609393  0.31481499    -0.12600
H306        H  0.34937301  0.44908147  0.35785490     0.13500
H307        H  0.43626297  0.30050125  0.40479225     0.13500
H308        H  0.37743638  0.24901406  0.33733455     0.13500
H309        H  0.29145243  0.39712363  0.29042544     0.13500
C310        C  0.41167988  0.32661573  0.13847730    -0.12600
C311        C  0.38837035  0.36324531  0.09943312     0.09500
C312        C  0.33037457  0.37336774  0.09910371    -0.12600
C313        C  0.29652588  0.34850901  0.13881442    -0.12600
C314        C  0.32071355  0.31455737  0.17963144     0.09500
C315        C  0.37804225  0.30277811  0.17892341    -0.12600
H316        H  0.45628029  0.31857200  0.13975870     0.13500
H317        H  0.31172223  0.40181133  0.06945406     0.13500
H318        H  0.25175400  0.35646390  0.13843979     0.13500
H319        H  0.39650629  0.27506904  0.20940921     0.13500
O320        O  0.51166854  0.44619695  0.63251241    -0.79400
O321        O  0.56305766  0.55942564  0.92296804    -0.79400
O322        O  0.59208446  0.44931541  0.96097439    -0.79500
O323        O  0.57431435  0.56189433  0.55396969    -0.79400
O324        O  0.53531234  0.45795521  0.89008851    -0.79500
O325        O  0.51379895  0.55631463  0.62380954    -0.79400
O326        O  0.55312559  0.63670872  0.97224624    -0.79400
O327        O  0.58003537  0.44080366  0.57110571    -0.79500
C328        C  0.56195823  0.43397936  0.62006582     1.10300
C329        C  0.57804588  0.60908789  0.93460295     1.10200
C330        C  0.58190956  0.44223412  0.90954479     1.10300
C331        C  0.56215949  0.56985664  0.60534605     1.10200
O332        O  0.40560508  0.55089809  0.56000009    -0.79400
O333        O  0.42509163  0.46400011  0.93231706    -0.79500
O334        O  0.47653888  0.37958434  0.55955468    -0.79400
O335        O  0.45542666  0.59082618  0.93905534    -0.79400
O336        O  0.46821831  0.54042454  0.86151730    -0.79500
O337        O  0.40976222  0.44154282  0.56481333    -0.79400
O338        O  0.46825942  0.61411377  0.55149979    -0.79400
O339        O  0.48140386  0.39317092  0.94667583    -0.79500
Co340      Co  0.46025078  0.49880921  0.59130378     1.51500
Co341      Co  0.49002681  0.51289866  0.93226724     1.51700
Co342      Co  0.53260754  0.42168872  0.00976207     1.51600
Co343      Co  0.51321345  0.56900557  0.49868026     1.51500
O344        O  0.49566427  0.49215431  0.51508159    -1.41400
C345        C  0.41923460  0.60025951  0.56438828     1.10200
C346        C  0.43566812  0.41338420  0.92680200     1.10300
C347        C  0.42655768  0.39325722  0.57149210     1.10200
C348        C  0.44554460  0.58081963  0.88599285     1.10200
C349        C  0.63946156  0.88222708  0.61047892     0.43200
N350        N  0.60679342  0.94402795  0.55555659     0.02100
C351        C  0.36268534  0.09573202  0.59388384    -0.05800
H352        H  0.32044127  0.91041856  0.57104465     0.07600
C353        C  0.41054328  0.90737190  0.86695446    -0.06200
Co354      Co  0.50927609  0.00379826  0.60669893     0.74200
N355        N  0.40299271  0.94632009  0.57370438    -0.25300
Co356      Co  0.39897615  0.00507000  0.51095053     0.74100
C357        C  0.35952189  0.88503368  0.89197026     0.43300
N358        N  0.55879359  0.94113516  0.89521553     0.01700
N359        N  0.39578035  0.94344142  0.94920579     0.01800
N360        N  0.43442035  0.09505033  0.65727048    -0.46200
H361        H  0.57226710  0.89987686  0.67766468     0.07500
N362        N  0.44474771  0.94468895  0.61082966     0.02100
N363        N  0.39731399  0.06197172  0.94919694     0.01800
C364        C  0.36286784  0.12056527  0.89211217     0.43400
N365        N  0.60057123  0.94181791  0.93247467    -0.24800
C366        C  0.59215104  0.09827546  0.64024783    -0.05700
N367        N  0.64738220  0.90723088  0.56065508    -0.45900
N368        N  0.35582192  0.09743881  0.94284342    -0.46100
C369        C  0.64226347  0.12241503  0.61537860     0.43200
N370        N  0.44569474  0.06364297  0.61263889     0.02100
N371        N  0.60126756  0.05887896  0.93365269    -0.24800
N372        N  0.57240855  0.94457201  0.59916534    -0.25300
N373        N  0.55943266  0.06014099  0.89650648     0.01700
H374        H  0.68280468  0.09725121  0.93667353     0.07600
H375        H  0.42999223  0.10186633  0.82506763     0.07600
N376        N  0.40396669  0.06314877  0.57539848    -0.25400
N377        N  0.43032822  0.94313209  0.90572973    -0.25000
N378        N  0.60753854  0.06335440  0.55745770     0.02100
C379        C  0.38144157  0.89094698  0.64412355     0.43500
C380        C  0.64220040  0.90958674  0.91353406    -0.06200
N381        N  0.43163412  0.06047965  0.90559683    -0.25000
H382        H  0.42750436  0.90069240  0.82520641     0.07600
N383        N  0.43328518  0.91219889  0.65405343    -0.46200
H384        H  0.68350490  0.90634683  0.93263802     0.07600
C385        C  0.62099491  0.11601824  0.86382133     0.43300
C386        C  0.59008466  0.90702087  0.63646206    -0.05700
Co387      Co  0.60279585  0.00414224  0.49341899     0.73800
N388        N  0.57029259  0.90994360  0.85048205    -0.45900
C389        C  0.38271846  0.11673788  0.64827285     0.43600
N390        N  0.64916526  0.09887195  0.56424185    -0.45900
Co391      Co  0.49495202  0.00112375  0.90005396     0.73900
C392        C  0.41284963  0.09617175  0.86681554    -0.06200
C393        C  0.36150510  0.91349243  0.59075574    -0.05800
N394        N  0.57333176  0.06231558  0.60119607    -0.25300
N395        N  0.35309676  0.90925070  0.94265345    -0.46100
H396        H  0.32153008  0.09922941  0.57450749     0.07600
C397        C  0.64193856  0.09293765  0.91677981    -0.06200
Cl398      Cl  0.50079749  0.00447151  0.50201763    -0.49200
C399        C  0.62218114  0.88850022  0.85899425     0.43300
H400        H  0.57478723  0.10445853  0.68191552     0.07500
N401        N  0.56975454  0.09365093  0.85389266    -0.45900
C402        C  0.87648311  0.36959195  0.61972892     0.43200
N403        N  0.93793082  0.40005782  0.56190661     0.02100
C404        C  0.08671597  0.64613766  0.59266124    -0.05800
H405        H  0.89952009  0.68296799  0.55330385     0.07600
C406        C  0.92530483  0.57333983  0.83875465    -0.06200
Co407      Co  0.99281923  0.50303216  0.60617426     0.74200
N408        N  0.93577775  0.60217424  0.55913491    -0.25300
Co409      Co  0.00212399  0.60308085  0.50184710     0.74100
C410        C  0.90235204  0.62799170  0.84911258     0.43300
N411        N  0.95455613  0.43862144  0.89347832     0.01700
N412        N  0.95363965  0.60384952  0.92037909     0.01800
N413        N  0.08097841  0.57989548  0.65861663    -0.46200
H414        H  0.88683437  0.44451901  0.67844245     0.07500
N415        N  0.93124764  0.56312156  0.59731969     0.02100
N416        N  0.07372425  0.60182527  0.93807408     0.01800
C417        C  0.13836317  0.62812967  0.88179293     0.43400
N418        N  0.94974809  0.40215957  0.93427371    -0.24800
C419        C  0.08607321  0.43203198  0.65992321    -0.05700
N420        N  0.90449933  0.35775718  0.57180613    -0.45900
N421        N  0.10805598  0.64310211  0.92719578    -0.46100
C422        C  0.11020397  0.37846660  0.64858977     0.43200
N423        N  0.05195492  0.56662580  0.61232152     0.02100
N424        N  0.06913216  0.40075504  0.95142176    -0.24800
N425        N  0.93403437  0.43887028  0.60097204    -0.25300
N426        N  0.07505687  0.43570706  0.90936555     0.01700
H427        H  0.10663389  0.32237671  0.96946563     0.07600
H428        H  0.12842265  0.55085931  0.82630772     0.07600
N429        N  0.05458177  0.60483448  0.57312188    -0.25400
N430        N  0.95732348  0.56231141  0.88443700    -0.25000
N431        N  0.05861448  0.40218697  0.57754976     0.02100
C432        C  0.87382257  0.62511739  0.62487230     0.43500
C433        C  0.91468506  0.36242653  0.91644611    -0.06200
N434        N  0.07811261  0.56108152  0.90123354    -0.25000
H435        H  0.92263687  0.54847759  0.80075447     0.07600
N436        N  0.89469273  0.57540959  0.63720296    -0.46200
H437        H  0.90534630  0.32535128  0.93916029     0.07600
C438        C  0.13406950  0.37131563  0.89218346     0.43300
C439        C  0.89585282  0.42333220  0.63921321    -0.05700
Co440      Co  0.00514473  0.40032338  0.50559062     0.73800
N441        N  0.92426931  0.42582864  0.84797669    -0.45900
C442        C  0.10399387  0.62950455  0.64943998     0.43600
N443        N  0.09120172  0.36201296  0.59690198    -0.45900
Co444      Co  0.01642980  0.49920581  0.89682093     0.73900
C445        C  0.11860642  0.57379409  0.86426751    -0.06200
C446        C  0.90095315  0.64326988  0.57315826    -0.05800
N447        N  0.05415209  0.44285996  0.61441911    -0.25300
N448        N  0.92173996  0.64434046  0.90059498    -0.46100
H449        H  0.09308281  0.68471862  0.57158429     0.07600
C450        C  0.10527811  0.35923431  0.94447870    -0.06200
Cl451      Cl  0.00398656  0.50169563  0.50346916    -0.49200
C452        C  0.89805134  0.37833716  0.85921247     0.43300
H453        H  0.08709898  0.45581315  0.69866319     0.07500
N454        N  0.11292684  0.41884351  0.87221425    -0.45900
C455        C  0.24453660  0.24242124  0.70042484     0.46200
H456        H  0.24339797  0.24122101  0.65338270    -0.02900
C457        C  0.24873364  0.24605095  0.80993792     0.46200
H458        H  0.24939588  0.24786923  0.85667714    -0.02900
C459        C  0.28895849  0.28150682  0.72474016    -0.16500
C460        C  0.18981627  0.26261293  0.72638190    -0.16300
C461        C  0.26074775  0.18767445  0.72650306    -0.16700
C462        C  0.29182434  0.28318295  0.78255713    -0.16700
C463        C  0.19220518  0.26639298  0.78452847    -0.16200
C464        C  0.26346315  0.18901116  0.78471823    -0.16500
C465        C  0.75270675  0.25229929  0.70222942     0.46200
H466        H  0.74983980  0.25426754  0.65562787    -0.02900
C467        C  0.75951804  0.25026471  0.81208560     0.46200
H468        H  0.76169753  0.25013926  0.85908842    -0.02900
C469        C  0.71563472  0.29432782  0.73140595    -0.16500
C470        C  0.73324749  0.19723533  0.72810871    -0.16300
C471        C  0.81177156  0.26710938  0.72545133    -0.16700
C472        C  0.71896054  0.29307708  0.78903807    -0.16700
C473        C  0.73722768  0.19674470  0.78638374    -0.16200
C474        C  0.81522048  0.26444204  0.78371792    -0.16500
C475        C  0.25210025  0.75704911  0.80234143     0.46200
H476        H  0.25736842  0.75222621  0.84855749    -0.02900
C477        C  0.23785263  0.76489167  0.69379038     0.46200
H478        H  0.23220007  0.76780322  0.64714921    -0.02900
C479        C  0.29034747  0.71913108  0.76835616    -0.16500
C480        C  0.19271590  0.74050649  0.78212646    -0.16300
C481        C  0.26646637  0.81455263  0.77904473    -0.16700
C482        C  0.28224622  0.72334225  0.71110725    -0.16700
C483        C  0.18519729  0.74546877  0.72459088    -0.16200
C484        C  0.25971121  0.81785158  0.72115422    -0.16500
C485        C  0.75093370  0.75263373  0.69546927     0.46200
H486        H  0.74556065  0.74867133  0.64910921    -0.02900
C487        C  0.76630336  0.76010573  0.80392589     0.46200
H488        H  0.77287301  0.76310862  0.85047309    -0.02900
C489        C  0.71567178  0.71131311  0.72852098    -0.16500
C490        C  0.81175111  0.74075698  0.71474728    -0.16300
C491        C  0.73311693  0.80879481  0.72042863    -0.16700
C492        C  0.72448979  0.71576636  0.78600353    -0.16700
C493        C  0.81976258  0.74381893  0.77246883    -0.16200
C494        C  0.74087373  0.81213911  0.77818301    -0.16500
C495        C  0.14193760  0.71604216  0.69011750    -0.15700
C496        C  0.13573965  0.66128588  0.69268870    -0.30900
H497        H  0.12308289  0.73813752  0.65510817     0.13300
H498        H  0.15650853  0.63848359  0.72610461     0.13900
C499        C  0.17531211  0.66532302  0.84993591    -0.15700
C500        C  0.15503181  0.70691367  0.81837387    -0.30900
H501        H  0.21981085  0.65572648  0.84929290     0.13300
H502        H  0.10991924  0.71289348  0.81486140     0.13900
C503        C  0.17148941  0.33383472  0.86115526    -0.15700
C504        C  0.15332410  0.30250167  0.81738434    -0.30900
H505        H  0.21468308  0.33179241  0.87580956     0.13300
H506        H  0.11007445  0.30650601  0.80287190     0.13900
C507        C  0.14894784  0.29153424  0.68857382    -0.15700
C508        C  0.14382445  0.34640081  0.68990729    -0.30900
H509        H  0.12967816  0.26847783  0.65410758     0.13300
H510        H  0.16518218  0.36938954  0.72319280     0.13900
C511        C  0.85314918  0.29912068  0.69123969    -0.15700
C512        C  0.83710084  0.33210846  0.64829612    -0.30900
H513        H  0.89680700  0.29975113  0.70505115     0.13300
H514        H  0.79334149  0.33462968  0.63553578     0.13900
C515        C  0.85811835  0.29268752  0.81933452    -0.15700
C516        C  0.86483332  0.34725223  0.81690126    -0.30900
H517        H  0.87670757  0.27003188  0.85410423     0.13300
H518        H  0.84448169  0.37024063  0.78331368     0.13900
C519        C  0.86502517  0.71438263  0.80489573    -0.15700
C520        C  0.86436586  0.65929382  0.81056260    -0.30900
H521        H  0.89400914  0.73859065  0.83047757     0.13300
H522        H  0.83442116  0.63551432  0.78580015     0.13900
C523        C  0.84110680  0.65729981  0.66570444    -0.15700
C524        C  0.84952635  0.71086553  0.67579713    -0.30900
H525        H  0.81065232  0.63521392  0.69060825     0.13300
H526        H  0.88150050  0.73335400  0.65326656     0.13900
C527        C  0.65157483  0.15034136  0.82263399    -0.15700
C528        C  0.70786479  0.15760241  0.82440671    -0.30900
H529        H  0.62695912  0.16998002  0.78964871     0.13300
H530        H  0.73225128  0.14002866  0.85871987     0.13900
C531        C  0.69922393  0.15547645  0.69603913    -0.15700
C532        C  0.68287067  0.16065268  0.64172083    -0.30900
H533        H  0.68428964  0.11995866  0.71872249     0.13300
H534        H  0.69917612  0.19267372  0.61519242     0.13900
C535        C  0.34973638  0.14689543  0.69141085    -0.15700
C536        C  0.29294317  0.14899569  0.68996322    -0.30900
H537        H  0.37266201  0.16846632  0.72466712     0.13300
H538        H  0.27001782  0.12875529  0.65592293     0.13900
C539        C  0.29779819  0.14787057  0.81630754    -0.15700
C540        C  0.32210752  0.15833657  0.86675115    -0.30900
H541        H  0.30740096  0.10925230  0.79545490     0.13300
H542        H  0.31258927  0.19482122  0.89091861     0.13900
C543        C  0.67923333  0.84292044  0.63567191    -0.15700
C544        C  0.69883267  0.85004024  0.68875104    -0.30900
H545        H  0.69221253  0.80875857  0.60956994     0.13300
H546        H  0.68693974  0.88733800  0.71085062     0.13900
C547        C  0.65410974  0.85737652  0.81539632    -0.15700
C548        C  0.71069291  0.85108441  0.81683516    -0.30900
H549        H  0.62986982  0.83804063  0.78162739     0.13300
H550        H  0.73449270  0.86807217  0.85217083     0.13900
C551        C  0.30151491  0.85515031  0.81132371    -0.15700
C552        C  0.31675571  0.84939163  0.86570632    -0.30900
H553        H  0.31804616  0.89017260  0.78899905     0.13300
H554        H  0.29749718  0.81911759  0.89239801     0.13900
C555        C  0.34858836  0.85932445  0.68578411    -0.15700
C556        C  0.29176544  0.85598257  0.68411841    -0.30900
H557        H  0.37188388  0.83817233  0.71870023     0.13300
H558        H  0.26866737  0.87542951  0.65000925     0.13900
C559        C  0.33743432  0.62836259  0.78027303    -0.12600
C560        C  0.33189373  0.68349442  0.79615642     0.09500
C561        C  0.36412404  0.70443653  0.84124383    -0.12600
C562        C  0.40094577  0.67071510  0.87064381    -0.12600
C563        C  0.40672170  0.61576446  0.85469887     0.09500
C564        C  0.37523210  0.59473604  0.80899569    -0.12600
H565        H  0.31174450  0.61102101  0.74660408     0.13500
H566        H  0.36099127  0.74687210  0.85371742     0.13500
H567        H  0.42537951  0.68775120  0.90546314     0.13500
H568        H  0.37884700  0.55215677  0.79652268     0.13500
C569        C  0.37248714  0.70970494  0.66326027    -0.12600
C570        C  0.31593294  0.69582721  0.66880625     0.09500
C571        C  0.29131474  0.65590830  0.63400061    -0.12600
C572        C  0.32452157  0.62662428  0.59649748    -0.12600
C573        C  0.38203218  0.63837309  0.59290467     0.09500
C574        C  0.40543818  0.68143729  0.62483076    -0.12600
H575        H  0.39132262  0.74116971  0.68979823     0.13500
H576        H  0.24724337  0.64576541  0.63785104     0.13500
H577        H  0.30593787  0.59341289  0.57213714     0.13500
H578        H  0.44987389  0.69069073  0.62296984     0.13500
C579        C  0.66811480  0.71588775  0.87168606    -0.12600
C580        C  0.69447785  0.68580858  0.82901128     0.09500
C581        C  0.68979071  0.62881101  0.82675217    -0.12600
C582        C  0.65379231  0.60269163  0.86370650    -0.12600
C583        C  0.62345398  0.63372085  0.90329310     0.09500
C584        C  0.63278313  0.69001341  0.90874530    -0.12600
H585        H  0.67236351  0.75982707  0.87466862     0.13500
H586        H  0.71160070  0.60521428  0.79481594     0.13500
H587        H  0.64782452  0.55886740  0.85964636     0.13500
H588        H  0.61037130  0.71464574  0.93941062     0.13500
C589        C  0.65673964  0.61050743  0.62113423    -0.12600
C590        C  0.60231892  0.60098249  0.64108436     0.09500
C591        C  0.58514798  0.62728549  0.69104533    -0.12600
C592        C  0.62153300  0.66334706  0.71966324    -0.12600
C593        C  0.67614335  0.67267536  0.69957234     0.09500
C594        C  0.69281229  0.64627506  0.64964222    -0.12600
H595        H  0.67103910  0.59152987  0.58231916     0.13500
H596        H  0.54291367  0.62185121  0.70663374     0.13500
H597        H  0.60637238  0.68493073  0.75659885     0.13500
H598        H  0.73355671  0.65370088  0.63172575     0.13500
C599        C  0.70948657  0.36705471  0.86026049    -0.12600
C600        C  0.68431024  0.32784874  0.82489305     0.09500
C601        C  0.62593198  0.32673841  0.81734805    -0.12600
C602        C  0.59301852  0.36668927  0.84224929    -0.12600
C603        C  0.61801914  0.40657274  0.87697350     0.09500
C604        C  0.67620160  0.40618224  0.88684359    -0.12600
H605        H  0.75464065  0.36823665  0.86596178     0.13500
H606        H  0.60618035  0.29596488  0.79058319     0.13500
H607        H  0.54788651  0.36533767  0.83594559     0.13500
H608        H  0.69564047  0.43618820  0.91475633     0.13500
C609        C  0.68358116  0.38810789  0.70731301    -0.12600
C610        C  0.67806480  0.33118528  0.70080059     0.09500
C611        C  0.63195238  0.30903280  0.67190023    -0.12600
C612        C  0.59106434  0.34350794  0.64998350    -0.12600
C613        C  0.59620104  0.40033467  0.65654066     0.09500
C614        C  0.64283050  0.42275266  0.68465424    -0.12600
H615        H  0.71913869  0.40535886  0.73015146     0.13500
H616        H  0.62699977  0.26512085  0.66748768     0.13500
H617        H  0.55682056  0.32597614  0.62551985     0.13500
H618        H  0.64834231  0.46672243  0.68755449     0.13500
C619        C  0.35233956  0.40345703  0.86240422    -0.12600
C620        C  0.39792641  0.37931932  0.89125382     0.09500
C621        C  0.40958244  0.32358876  0.88196384    -0.12600
C622        C  0.37603210  0.29266398  0.84494620    -0.12600
C623        C  0.33066870  0.31700825  0.81658160     0.07100
C624        C  0.31906533  0.37249397  0.82526193    -0.12600
H625        H  0.34262452  0.44644160  0.86809126     0.13500
H626        H  0.44482412  0.30401670  0.90289357     0.13500
H627        H  0.38559941  0.24982569  0.83822574     0.13500
H628        H  0.28364130  0.39150434  0.80405406     0.13500
C629        C  0.41593967  0.32353727  0.64515615    -0.12600
C630        C  0.39128331  0.35743497  0.60423213     0.09500
C631        C  0.33320127  0.36638052  0.60382956    -0.12600
C632        C  0.30026690  0.34299598  0.64492972    -0.12600
C633        C  0.32517862  0.31091654  0.68684881     0.09500
C634        C  0.38284845  0.30044684  0.68669346    -0.12600
H635        H  0.46085342  0.31721976  0.64681027     0.13500
H636        H  0.31369416  0.39304527  0.57293799     0.13500
H637        H  0.25538615  0.35005769  0.64421114     0.13500
H638        H  0.40191395  0.27411139  0.71813492     0.13500
loop_ 
_geom_bond_atom_site_label_1 
_geom_bond_atom_site_label_2 
_geom_bond_distance 
_geom_bond_site_symmetry_2 
_ccdc_geom_bond_type 
O1            C9   1.273       .  A
O1          Co21   2.026       .  S
O2           C10   1.289       .  A
O2          Co22   2.080       .  S
O3           C11   1.245       .  A
O3          Co23   1.955       .  S
O4           C12   1.268       .  A
O4          Co24   1.961   1_554  S
O5           C11   1.258       .  A
O5          Co22   1.998       .  S
O6           C12   1.278       .  A
O6          Co21   2.028       .  S
O7           C10   1.264       .  A
O7         Co343   1.864       .  S
O8            C9   1.254       .  A
O8         Co342   1.941       .  S
C9          C294   1.443       .  S
C10         C264   1.444       .  S
C11         C284   1.446       .  S
C12         C271   1.471       .  S
O13          C26   1.254       .  A
O13         Co21   1.967       .  S
O14          C27   1.265       .  A
O14         Co22   1.945       .  S
O15          C28   1.272       .  A
O15        Co342   2.008       .  S
O16          C29   1.295       .  A
O16        Co343   2.097       .  S
O17          C29   1.263       .  A
O17         Co22   1.877       .  S
O18          C28   1.257       .  A
O18         Co21   1.946       .  S
O19          C26   1.259       .  A
O19         Co24   1.989   1_554  S
O20          C27   1.284       .  A
O20         Co23   2.046       .  S
Co21         O25   2.003       .  S
Co22        O344   1.977       .  S
Co23        O327   1.940       .  S
Co23        O334   2.007       .  S
Co23        O344   1.989       .  S
Co24        O326   1.862       .  S
Co24        O335   2.103       .  S
Co24         O25   1.966   1_556  S
O25        Co341   1.973   1_554  S
O25        Co342   1.991       .  S
C26         C254   1.454       .  S
C27         C301   1.476       .  S
C28         C311   1.453       .  S
C29         C244   1.457       .  S
C30          C67   1.463       .  S
C30          N48   1.348       .  A
C30         C224   1.479       .  S
N31          N48   1.326       .  A
N31          N53   1.325       .  A
N31         Co68   2.096   1_564  S
C32          C70   1.455       .  S
C32          N57   1.339       .  A
C32          H77   1.081       .  S
H33          C74   1.081       .  S
C34          C38   1.466       .  S
C34          N58   1.345       .  A
C34          H63   1.082       .  S
Co35         N53   2.103   1_545  S
Co35         N43   2.110   1_545  S
Co35         N75   2.097       .  S
Co35         N51   2.119       .  S
Co35        Cl79   2.480       .  S
N36          C74   1.339       .  A
N36          N43   1.320       .  A
N36         Co37   2.069   1_565  S
Co37         N57   2.072       .  S
Co37        N359   2.075   1_544  S
Co37        N363   2.072   1_554  S
Co37        Cl79   2.437       .  S
C38          N76   1.344       .  A
C38         C233   1.475       .  S
N39          N46   1.322       .  A
N39          N69   1.331       .  A
N39         Co72   2.119   1_565  S
N40          N58   1.324       .  A
N40          N76   1.324       .  A
N40        Co356   2.079   1_565  S
N41          C70   1.358       .  A
N41          N51   1.331       .  A
H42          C67   1.082       .  S
N43          N64   1.329       .  A
N44          N62   1.324       .  A
N44          N49   1.324       .  A
N44        Co356   2.080       .  S
C45          C73   1.464       .  S
C45          N49   1.344       .  A
C45         C221   1.474       .  S
N46          C61   1.340       .  A
N46        Co387   2.079   1_565  S
C47          C50   1.462       .  S
C47          N75   1.344       .  A
C47          H81   1.082       .  S
C50          N71   1.347       .  A
C50         C213   1.476       .  S
N51          N57   1.321       .  A
N52          C78   1.342       .  A
N52          N54   1.322       .  A
N52        Co387   2.084       .  S
N53          C67   1.344       .  A
N54          N82   1.330       .  A
N54         Co72   2.119       .  S
H55          C78   1.081       .  S
H56          C73   1.082       .  S
N58         Co72   2.104   1_565  S
N59          N71   1.326       .  A
N59          N75   1.324       .  A
N59         Co68   2.091   1_554  S
C60          C74   1.455       .  S
C60          N64   1.356       .  A
C60         C236   1.481       .  S
C61          C80   1.457       .  S
C61          H65   1.081       .  S
N62          C73   1.344       .  A
N62         Co72   2.101       .  S
C66          C78   1.459       .  S
C66          N82   1.357       .  A
C66         C208   1.490       .  S
Co68        N365   2.088   1_545  S
Co68        N371   2.087       .  S
Co68        Cl79   2.443   1_556  S
N69          C80   1.358       .  A
C70         C216   1.486       .  S
Co72       Cl398   2.482       .  S
Cl79       Co391   2.477   1_554  S
C80         C228   1.489       .  S
C83         C120   1.465       .  S
C83         N101   1.350       .  A
C83         C193   1.488       .  S
N84         N101   1.329       .  A
N84         N106   1.325       .  A
N84        Co121   2.099   1_655  S
C85         C123   1.463       .  S
C85         N110   1.343       .  A
C85         H130   1.081       .  S
H86         C127   1.081       .  S
C87          C91   1.456       .  S
C87         N111   1.341       .  A
C87         H116   1.081       .  S
Co88        N106   2.110       .  S
Co88         N96   2.116       .  S
Co88        N128   2.100   1_655  S
Co88        N104   2.079   1_655  S
Co88       Cl132   2.460   1_654  S
N89         C127   1.338       .  A
N89          N96   1.325       .  A
N89         Co90   2.074   1_654  S
Co90        N110   2.101   1_556  S
Co90        N412   2.106   1_455  S
Co90        N416   2.083       .  S
Co90       Cl132   2.469       .  S
C91         N129   1.356       .  A
C91         C201   1.486       .  S
N92          N99   1.324       .  A
N92         N122   1.325       .  A
N92        Co125   2.090   1_655  S
N93         N111   1.323       .  A
N93         N129   1.332       .  A
N93        Co409   2.111   1_655  S
N94         C123   1.345       .  A
N94         N104   1.323       .  A
H95         C120   1.082       .  S
N96         N117   1.330       .  A
N97         N115   1.324       .  A
N97         N102   1.328       .  A
N97        Co409   2.096       .  S
C98         C126   1.465       .  S
C98         N102   1.350       .  A
C98         C180   1.487       .  S
N99         C114   1.345       .  A
N99        Co440   2.102   1_655  S
C100        C103   1.459       .  S
C100        N128   1.343       .  A
C100        H134   1.081       .  S
C103        N124   1.355       .  A
C103        C189   1.489       .  S
N104        N110   1.323       .  A
N105        C131   1.340       .  A
N105        N107   1.325       .  A
N105       Co440   2.081       .  S
N106        C120   1.347       .  A
N107        N135   1.328       .  A
N107       Co125   2.107       .  S
H108        C131   1.082       .  S
H109        C126   1.082       .  S
N111       Co125   2.091   1_655  S
N112        N124   1.331       .  A
N112        N128   1.321       .  A
N112       Co121   2.101       .  S
C113        C127   1.448       .  S
C113        N117   1.356       .  A
C113        C204   1.477       .  S
C114        C133   1.465       .  S
C114        H118   1.081       .  S
N115        C126   1.348       .  A
N115       Co125   2.109       .  S
C119        C131   1.452       .  S
C119        N135   1.352       .  A
C119        C184   1.472       .  S
Co121       N418   2.097   1_454  S
Co121       N424   2.085   1_554  S
Co121      Cl132   2.470   1_554  S
N122        C133   1.347       .  A
C123        C177   1.471       .  S
Co125      Cl451   2.452       .  S
Cl132      Co444   2.459       .  S
C133        C197   1.478       .  S
C136        H137   1.113       .  S
C136        C142   1.534       .  S
C136        C141   1.531       .  S
C136        C140   1.527       .  S
C138        H139   1.106       .  S
C138        C144   1.547       .  S
C138        C143   1.523       .  S
C138        C145   1.550       .  S
C140        C314   1.447       .  S
C140        C143   1.369       .  D
C141        C144   1.378       .  D
C141        C188   1.500       .  S
C142        C145   1.381       .  D
C142        C217   1.496       .  S
C143        C304   1.469       .  S
C144        C185   1.492       .  S
C145        C220   1.501       .  S
C146        H147   1.108       .  S
C146        C152   1.545       .  S
C146        C151   1.558       .  S
C146        C150   1.521       .  S
C148        H149   1.112       .  S
C148        C154   1.532       .  S
C148        C153   1.522       .  S
C148        C155   1.537       .  S
C150        C291   1.458       .  S
C150        C153   1.364       .  D
C151        C154   1.380       .  D
C151        C212   1.498       .  S
C152        C155   1.382       .  D
C152        C192   1.505       .  S
C153        C281   1.457       .  S
C154        C209   1.500       .  S
C155        C196   1.485       .  S
C156        H157   1.103       .  S
C156        C162   1.555       .  S
C156        C161   1.548       .  S
C156        C160   1.532       .  S
C158        H159   1.113       .  S
C158        C164   1.529       .  S
C158        C163   1.523       .  S
C158        C165   1.525       .  S
C160        C241   1.469       .  S
C160        C163   1.373       .  D
C161        C164   1.379       .  D
C161        C181   1.511       .  S
C162        C165   1.379       .  D
C162        C232   1.500       .  S
C163        C251   1.460       .  S
C164        C176   1.482       .  S
C165        C237   1.493       .  S
C166        H167   1.102       .  S
C166        C172   1.555       .  S
C166        C171   1.557       .  S
C166        C170   1.529       .  S
C168        H169   1.113       .  S
C168        C174   1.531       .  S
C168        C173   1.524       .  S
C168        C175   1.528       .  S
C170        C274   1.479       .  S
C170        C173   1.372       .  D
C171        C174   1.385       .  D
C171        C205   1.506       .  S
C172        C175   1.375       .  D
C172        C225   1.500       .  S
C173        C261   1.447       .  S
C174        C200   1.500       .  S
C175        C229   1.499       .  S
C176        C177   1.343       .  D
C176        H178   1.086       .  S
C177        H179   1.087       .  S
C180        C181   1.354       .  D
C180        H182   1.082       .  S
C181        H183   1.086       .  S
C184        C185   1.349       .  D
C184        H186   1.083       .  S
C185        H187   1.086       .  S
C188        C189   1.350       .  D
C188        H190   1.086       .  S
C189        H191   1.085       .  S
C192        C193   1.356       .  D
C192        H194   1.086       .  S
C193        H195   1.085       .  S
C196        C197   1.344       .  D
C196        H198   1.085       .  S
C197        H199   1.086       .  S
C200        C201   1.350       .  D
C200        H202   1.086       .  S
C201        H203   1.087       .  S
C204        C205   1.347       .  D
C204        H206   1.080       .  S
C205        H207   1.085       .  S
C208        C209   1.356       .  D
C208        H210   1.086       .  S
C209        H211   1.084       .  S
C212        C213   1.344       .  D
C212        H214   1.086       .  S
C213        H215   1.082       .  S
C216        C217   1.356       .  D
C216        H218   1.086       .  S
C217        H219   1.084       .  S
C220        C221   1.345       .  D
C220        H222   1.085       .  S
C221        H223   1.081       .  S
C224        C225   1.346       .  D
C224        H226   1.083       .  S
C225        H227   1.087       .  S
C228        C229   1.356       .  D
C228        H230   1.086       .  S
C229        H231   1.084       .  S
C232        C233   1.342       .  D
C232        H234   1.085       .  S
C233        H235   1.082       .  S
C236        C237   1.353       .  D
C236        H238   1.086       .  S
C237        H239   1.085       .  S
C240        H246   1.083       .  S
C240        C241   1.402       .  A
C240        C245   1.392       .  A
C241        C242   1.401       .  A
C242        H247   1.079       .  S
C242        C243   1.388       .  A
C243        H248   1.084       .  S
C243        C244   1.399       .  A
C244        C245   1.402       .  A
C245        H249   1.083       .  S
C250        H256   1.083       .  S
C250        C251   1.399       .  A
C250        C255   1.390       .  A
C251        C252   1.400       .  A
C252        H257   1.082       .  S
C252        C253   1.390       .  A
C253        H258   1.084       .  S
C253        C254   1.401       .  A
C254        C255   1.403       .  A
C255        H259   1.083       .  S
C260        H266   1.084       .  S
C260        C261   1.397       .  A
C260        C265   1.384       .  A
C261        C262   1.397       .  A
C262        H267   1.081       .  S
C262        C263   1.379       .  A
C263        H268   1.083       .  S
C263        C264   1.398       .  A
C264        C265   1.404       .  A
C265        H269   1.083       .  S
C270        H276   1.083       .  S
C270        C271   1.402       .  A
C270        C275   1.392       .  A
C271        C272   1.406       .  A
C272        H277   1.083       .  S
C272        C273   1.398       .  A
C273        H278   1.084       .  S
C273        C274   1.404       .  A
C274        C275   1.400       .  A
C275        H279   1.079       .  S
C280        H286   1.083       .  S
C280        C281   1.398       .  A
C280        C285   1.393       .  A
C281        C282   1.400       .  A
C282        H287   1.084       .  S
C282        C283   1.383       .  A
C283        H288   1.084       .  S
C283        C284   1.397       .  A
C284        C285   1.404       .  A
C285        H289   1.084       .  S
C290        H296   1.084       .  S
C290        C291   1.403       .  A
C290        C295   1.393       .  A
C291        C292   1.394       .  A
C292        H297   1.084       .  S
C292        C293   1.386       .  A
C293        H298   1.081       .  S
C293        C294   1.400       .  A
C294        C295   1.399       .  A
C295        H299   1.083       .  S
C300        H306   1.083       .  S
C300        C301   1.410       .  A
C300        C305   1.395       .  A
C301        C302   1.403       .  A
C302        H307   1.083       .  S
C302        C303   1.396       .  A
C303        H308   1.082       .  S
C303        C304   1.402       .  A
C304        C305   1.397       .  A
C305        H309   1.083       .  S
C310        H316   1.080       .  S
C310        C311   1.402       .  A
C310        C315   1.386       .  A
C311        C312   1.403       .  A
C312        H317   1.083       .  S
C312        C313   1.387       .  A
C313        H318   1.084       .  S
C313        C314   1.398       .  A
C314        C315   1.395       .  A
C315        H319   1.083       .  S
O320        C328   1.271       .  A
O320       Co340   2.024       .  S
O321        C329   1.292       .  A
O321       Co341   2.092       .  S
O322        C330   1.249       .  A
O322       Co342   1.959   1_556  S
O323        C331   1.266       .  A
O323       Co343   1.955       .  S
O324        C330   1.258       .  A
O324       Co341   1.990       .  S
O325        C331   1.280       .  A
O325       Co340   2.038       .  S
O326        C329   1.265       .  A
O327        C328   1.252       .  A
C328        C613   1.443       .  S
C329        C583   1.450       .  S
C330        C603   1.447       .  S
C331        C590   1.477       .  S
O332        C345   1.252       .  A
O332       Co340   1.964       .  S
O333        C346   1.268       .  A
O333       Co341   1.954       .  S
O334        C347   1.270       .  A
O335        C348   1.296       .  A
O336        C348   1.264       .  A
O336       Co341   1.877       .  S
O337        C347   1.256       .  A
O337       Co340   1.941       .  S
O338        C345   1.257       .  A
O338       Co343   1.981       .  S
O339        C346   1.282       .  A
O339       Co342   2.036   1_556  S
Co340       O344   2.003       .  S
Co343       O344   1.966       .  S
C345        C573   1.452       .  S
C346        C620   1.477       .  S
C347        C630   1.447       .  S
C348        C563   1.459       .  S
C349        C386   1.461       .  S
C349        N367   1.347       .  A
C349        C543   1.474       .  S
N350        N367   1.325       .  A
N350        N372   1.323       .  A
N350       Co387   2.088   1_565  S
C351        C389   1.457       .  S
C351        N376   1.339       .  A
C351        H396   1.081       .  S
H352        C393   1.081       .  S
C353        C357   1.464       .  S
C353        N377   1.344       .  A
C353        H382   1.082       .  S
Co354       N372   2.094   1_545  S
Co354       N362   2.112   1_545  S
Co354       N394   2.096       .  S
Co354       N370   2.110       .  S
Co354      Cl398   2.482       .  S
N355        C393   1.340       .  A
N355        N362   1.321       .  A
N355       Co356   2.075   1_565  S
Co356       N376   2.077       .  S
Co356      Cl398   2.436       .  S
C357        N395   1.343       .  A
C357        C552   1.470       .  S
N358        N365   1.322       .  A
N358        N388   1.330       .  A
N358       Co391   2.115   1_565  S
N359        N377   1.323       .  A
N359        N395   1.323       .  A
N360        C389   1.356       .  A
N360        N370   1.330       .  A
H361        C386   1.082       .  S
N362        N383   1.330       .  A
N363        N381   1.323       .  A
N363        N368   1.322       .  A
C364        C392   1.462       .  S
C364        N368   1.342       .  A
C364        C540   1.466       .  S
N365        C380   1.344       .  A
C366        C369   1.462       .  S
C366        N394   1.343       .  A
C366        H400   1.082       .  S
C369        N390   1.347       .  A
C369        C532   1.475       .  S
N370        N376   1.321       .  A
N371        C397   1.343       .  A
N371        N373   1.322       .  A
N372        C386   1.343       .  A
N373        N401   1.328       .  A
N373       Co391   2.109       .  S
H374        C397   1.081       .  S
H375        C392   1.082       .  S
N377       Co391   2.098   1_565  S
N378        N390   1.325       .  A
N378        N394   1.324       .  A
N378       Co387   2.088       .  S
C379        C393   1.456       .  S
C379        N383   1.357       .  A
C379        C555   1.486       .  S
C380        C399   1.461       .  S
C380        H384   1.081       .  S
N381        C392   1.344       .  A
N381       Co391   2.096       .  S
C385        C397   1.461       .  S
C385        N401   1.355       .  A
C385        C527   1.487       .  S
Co387      Cl398   2.439       .  S
N388        C399   1.356       .  A
C389        C535   1.485       .  S
C399        C547   1.491       .  S
C402        C439   1.461       .  S
C402        N420   1.350       .  A
C402        C512   1.482       .  S
N403        N420   1.328       .  A
N403        N425   1.323       .  A
N403       Co440   2.093   1_655  S
C404        C442   1.461       .  S
C404        N429   1.343       .  A
C404        H449   1.081       .  S
H405        C446   1.081       .  S
C406        C410   1.463       .  S
C406        N430   1.345       .  A
C406        H435   1.082       .  S
Co407       N425   2.104       .  S
Co407       N415   2.085       .  S
Co407       N447   2.081   1_655  S
Co407       N423   2.100   1_655  S
Co407      Cl451   2.446   1_655  S
N408        C446   1.344       .  A
N408        N415   1.324       .  A
N408       Co409   2.092   1_655  S
Co409       N429   2.088       .  S
Co409      Cl451   2.478       .  S
C410        N448   1.355       .  A
C410        C520   1.493       .  S
N411        N418   1.324       .  A
N411        N441   1.325       .  A
N411       Co444   2.089   1_655  S
N412        N430   1.322       .  A
N412        N448   1.332       .  A
N413        C442   1.350       .  A
N413        N423   1.327       .  A
H414        C439   1.082       .  S
N415        N436   1.323       .  A
N416        N434   1.323       .  A
N416        N421   1.327       .  A
C417        C445   1.464       .  S
C417        N421   1.348       .  A
C417        C499   1.481       .  S
N418        C433   1.343       .  A
C419        C422   1.453       .  S
C419        N447   1.339       .  A
C419        H453   1.081       .  S
C422        N443   1.357       .  A
C422        C508   1.485       .  S
N423        N429   1.323       .  A
N424        C450   1.340       .  A
N424        N426   1.325       .  A
N425        C439   1.346       .  A
N426        N454   1.329       .  A
N426       Co444   2.108       .  S
H427        C450   1.081       .  S
H428        C445   1.082       .  S
N430       Co444   2.108   1_655  S
N431        N443   1.332       .  A
N431        N447   1.322       .  A
N431       Co440   2.115       .  S
C432        C446   1.461       .  S
C432        N436   1.345       .  A
C432        C523   1.470       .  S
C433        C452   1.462       .  S
C433        H437   1.081       .  S
N434        C445   1.346       .  A
N434       Co444   2.109       .  S
C438        C450   1.453       .  S
C438        N454   1.352       .  A
C438        C503   1.474       .  S
Co440      Cl451   2.478       .  S
N441        C452   1.347       .  A
C442        C496   1.481       .  S
C452        C516   1.475       .  S
C455        H456   1.113       .  S
C455        C461   1.525       .  S
C455        C460   1.526       .  S
C455        C459   1.530       .  S
C457        H458   1.106       .  S
C457        C463   1.552       .  S
C457        C462   1.523       .  S
C457        C464   1.553       .  S
C459        C633   1.445       .  S
C459        C462   1.369       .  D
C460        C463   1.378       .  D
C460        C507   1.496       .  S
C461        C464   1.378       .  D
C461        C536   1.493       .  S
C462        C623   1.470       .  S
C463        C504   1.498       .  S
C464        C539   1.495       .  S
C465        H466   1.105       .  S
C465        C471   1.547       .  S
C465        C470   1.555       .  S
C465        C469   1.520       .  S
C467        H468   1.112       .  S
C467        C473   1.530       .  S
C467        C472   1.524       .  S
C467        C474   1.533       .  S
C469        C610   1.460       .  S
C469        C472   1.365       .  D
C470        C473   1.381       .  D
C470        C531   1.499       .  S
C471        C474   1.382       .  D
C471        C511   1.505       .  S
C472        C600   1.457       .  S
C473        C528   1.496       .  S
C474        C515   1.484       .  S
C475        H476   1.106       .  S
C475        C481   1.553       .  S
C475        C480   1.541       .  S
C475        C479   1.529       .  S
C477        H478   1.113       .  S
C477        C483   1.534       .  S
C477        C482   1.521       .  S
C477        C484   1.531       .  S
C479        C560   1.471       .  S
C479        C482   1.370       .  D
C480        C483   1.377       .  D
C480        C500   1.497       .  S
C481        C484   1.380       .  D
C481        C551   1.496       .  S
C482        C570   1.450       .  S
C483        C495   1.489       .  S
C484        C556   1.498       .  S
C485        H486   1.106       .  S
C485        C491   1.550       .  S
C485        C490   1.542       .  S
C485        C489   1.537       .  S
C487        H488   1.112       .  S
C487        C493   1.532       .  S
C487        C492   1.526       .  S
C487        C494   1.536       .  S
C489        C593   1.491       .  S
C489        C492   1.377       .  D
C490        C493   1.378       .  D
C490        C524   1.482       .  S
C491        C494   1.378       .  D
C491        C544   1.498       .  S
C492        C580   1.452       .  S
C493        C519   1.503       .  S
C494        C548   1.502       .  S
C495        C496   1.348       .  D
C495        H497   1.085       .  S
C496        H498   1.086       .  S
C499        C500   1.352       .  D
C499        H501   1.085       .  S
C500        H502   1.086       .  S
C503        C504   1.350       .  D
C503        H505   1.083       .  S
C504        H506   1.087       .  S
C507        C508   1.346       .  D
C507        H509   1.085       .  S
C508        H510   1.086       .  S
C511        C512   1.354       .  D
C511        H513   1.087       .  S
C512        H514   1.084       .  S
C515        C516   1.345       .  D
C515        H517   1.086       .  S
C516        H518   1.087       .  S
C519        C520   1.354       .  D
C519        H521   1.085       .  S
C520        H522   1.084       .  S
C523        C524   1.343       .  D
C523        H525   1.085       .  S
C524        H526   1.086       .  S
C527        C528   1.352       .  D
C527        H529   1.086       .  S
C528        H530   1.084       .  S
C531        C532   1.346       .  D
C531        H533   1.086       .  S
C532        H534   1.081       .  S
C535        C536   1.353       .  D
C535        H537   1.086       .  S
C536        H538   1.084       .  S
C539        C540   1.344       .  D
C539        H541   1.087       .  S
C540        H542   1.080       .  S
C543        C544   1.345       .  D
C543        H545   1.081       .  S
C544        H546   1.086       .  S
C547        C548   1.356       .  D
C547        H549   1.086       .  S
C548        H550   1.085       .  S
C551        C552   1.341       .  D
C551        H553   1.085       .  S
C552        H554   1.081       .  S
C555        C556   1.356       .  D
C555        H557   1.086       .  S
C556        H558   1.084       .  S
C559        H565   1.083       .  S
C559        C560   1.402       .  A
C559        C564   1.394       .  A
C560        C561   1.401       .  A
C561        H566   1.079       .  S
C561        C562   1.388       .  A
C562        H567   1.084       .  S
C562        C563   1.399       .  A
C563        C564   1.403       .  A
C564        H568   1.083       .  S
C569        H575   1.083       .  S
C569        C570   1.396       .  A
C569        C574   1.387       .  A
C570        C571   1.396       .  A
C571        H576   1.083       .  S
C571        C572   1.389       .  A
C572        H577   1.083       .  S
C572        C573   1.403       .  A
C573        C574   1.402       .  A
C574        H578   1.083       .  S
C579        H585   1.080       .  S
C579        C580   1.398       .  A
C579        C584   1.378       .  A
C580        C581   1.398       .  A
C581        H586   1.083       .  S
C581        C582   1.389       .  A
C582        H587   1.084       .  S
C582        C583   1.406       .  A
C583        C584   1.398       .  A
C584        H588   1.083       .  S
C589        H595   1.083       .  S
C589        C590   1.404       .  A
C589        C594   1.391       .  A
C590        C591   1.405       .  A
C591        H596   1.083       .  S
C591        C592   1.401       .  A
C592        H597   1.082       .  S
C592        C593   1.408       .  A
C593        C594   1.402       .  A
C594        H598   1.079       .  S
C599        H605   1.083       .  S
C599        C600   1.398       .  A
C599        C604   1.392       .  A
C600        C601   1.400       .  A
C601        H606   1.083       .  S
C601        C602   1.383       .  A
C602        H607   1.084       .  S
C602        C603   1.399       .  A
C603        C604   1.403       .  A
C604        H608   1.083       .  S
C609        H615   1.083       .  S
C609        C610   1.404       .  A
C609        C614   1.393       .  A
C610        C611   1.395       .  A
C611        H616   1.083       .  S
C611        C612   1.387       .  A
C612        H617   1.082       .  S
C612        C613   1.401       .  A
C613        C614   1.398       .  A
C614        H618   1.084       .  S
C619        H625   1.083       .  S
C619        C620   1.408       .  A
C619        C624   1.395       .  A
C620        C621   1.406       .  A
C621        H626   1.083       .  S
C621        C622   1.397       .  A
C622        H627   1.082       .  S
C622        C623   1.401       .  A
C623        C624   1.398       .  A
C624        H628   1.083       .  S
C629        H635   1.081       .  S
C629        C630   1.403       .  A
C629        C634   1.389       .  A
C630        C631   1.400       .  A
C631        H636   1.084       .  S
C631        C632   1.382       .  A
C632        H637   1.082       .  S
C632        C633   1.396       .  A
C633        C634   1.397       .  A
C634        H638   1.083       .  S
