geometry optimzed in LAMMPS
_audit_creation_date              2020-11-30 
_audit_creation_method            'lammps2cif' 
_symmetry_space_group_name_H-M    'P1' 
_symmetry_Int_Tables_number       1 
_symmetry_cell_setting            triclinic 
loop_ 
_symmetry_equiv_pos_as_xyz 
  x,y,z 
_cell_length_a                    25.98071546 
_cell_length_b                    25.979444577056277 
_cell_length_c                    35.02087394745065 
_cell_angle_alpha                 89.51586445957298 
_cell_angle_beta                  89.79673608855666 
_cell_angle_gamma                 89.50724780345449 
loop_ 
_atom_site_label 
_atom_site_type_symbol 
_atom_site_fract_x 
_atom_site_fract_y 
_atom_site_fract_z 
_atom_site_charge 
N1          N  0.46044652  0.22170721  0.96756529    -0.01900
C2          C  0.47309901  0.17619843  0.95036003     0.00700
C3          C  0.44740574  0.17055075  0.91631770    -0.22200
C4          C  0.41087721  0.20824181  0.91563499    -0.22400
C5          C  0.41485512  0.23361782  0.94990179     0.00600
H6          H  0.44706092  0.13659336  0.89861328     0.14400
H7          H  0.37771680  0.20863645  0.89700984     0.14400
N8          N  0.44644515  0.19175503  0.51621673    -0.01900
C9          C  0.45911316  0.14529351  0.53242497     0.00700
C10         C  0.43261661  0.13705603  0.56606563    -0.22200
C11         C  0.39552684  0.17418118  0.56741393    -0.22400
C12         C  0.40079586  0.20269980  0.53417715     0.00600
H13         H  0.43221486  0.10175755  0.58278024     0.14400
H14         H  0.36139117  0.17199232  0.58521625     0.14400
N15         N  0.25475110  0.46094533  0.01495356    -0.01900
C16         C  0.24542581  0.41369844  0.03125901     0.00700
C17         C  0.27773363  0.40379227  0.06160920    -0.22200
C18         C  0.31296553  0.44181989  0.06161593    -0.22400
C19         C  0.30134010  0.47298232  0.03075839     0.00600
H20         H  0.28233071  0.36749040  0.07650318     0.14400
H21         H  0.34916963  0.44017344  0.07685612     0.14400
N22         N  0.24055174  0.43236974  0.46736745    -0.01900
C23         C  0.22948237  0.38576953  0.45131950     0.00700
C24         C  0.26145621  0.37495183  0.42088439    -0.22200
C25         C  0.29912353  0.41053113  0.42162921    -0.22400
C26         C  0.28789856  0.44254555  0.45176611     0.00600
H27         H  0.26399747  0.33887554  0.40564188     0.14400
H28         H  0.33584848  0.40651193  0.40723905     0.14400
O29         O  0.36056656  0.47031763  0.97955384    -0.76900
C30         C  0.48412864  0.49541762  0.88385591     0.84100
O31         O  0.99728132  0.36420712  0.00101667    -0.78000
O32         O  0.10915935  0.00580049  0.98323804    -0.79500
O33         O  0.46032485  0.11484148  0.99926029    -0.79300
O34         O  0.37468923  0.52403899  0.02794303    -0.77900
Zn35       Zn  0.43213747  0.46278687  0.95622458     1.55700
O36         O  0.52047815  0.09926570  0.95465647    -0.79300
Cd37       Cd  0.45131265  0.04237587  0.02318370     1.59700
Cd38       Cd  0.00989529  0.43655184  0.02401953     1.59600
O39         O  0.47785182  0.53318062  0.07868695    -0.79300
O40         O  0.48246525  0.49047370  0.98963633    -1.89800
Cd41       Cd  0.03711832  0.02122688  0.95795482     1.59900
O42         O  0.98197439  0.44757733  0.07912231    -0.79300
O43         O  0.52720639  0.99860266  0.90125520    -0.77900
C44         C  0.47496260  0.35412268  0.96957846     0.84600
C45         C  0.34588693  0.49316864  0.00990872     0.84300
O46         O  0.44179933  0.49039364  0.90230144    -0.76900
C47         C  0.48770982  0.12892567  0.97077033     0.85100
O48         O  0.44898177  0.38777941  0.95111529    -0.77000
C49         C  0.47926502  0.49039921  0.09687810     0.85200
C50         C  0.12053084  0.47772446  0.01237837     0.85500
O51         O  0.08775383  0.44885624  0.02896922    -0.79400
O52         O  0.43619143  0.35914346  0.53071538    -0.76900
C53         C  0.47476318  0.46800415  0.59606557     0.84100
O54         O  0.36086310  0.49431768  0.45321499    -0.78000
O55         O  0.50767826  0.06983381  0.52549453    -0.79500
O56         O  0.07610679  0.42102935  0.45160049    -0.79300
O57         O  0.98362560  0.33506717  0.48040319    -0.77900
Zn58       Zn  0.41940423  0.43444768  0.52564149     1.55700
O59         O  0.09544780  0.97881918  0.49621068    -0.79300
Cd60       Cd  0.99766707  0.40810425  0.45653576     1.59700
Cd61       Cd  0.43692988  0.01422840  0.45832024     1.59600
O62         O  0.97167759  0.42200322  0.40095587    -0.79300
O63         O  0.46909721  0.46137871  0.49073180    -1.89800
Cd64       Cd  0.02390601  0.99226688  0.52112769     1.59900
O65         O  0.46494060  0.50778439  0.40343978    -0.79300
O66         O  0.51697269  0.96824806  0.57717945    -0.77900
C67         C  0.33226674  0.46355721  0.47203945     0.84600
C68         C  0.46131244  0.32505022  0.51221104     0.84300
O69         O  0.43132835  0.46397685  0.57908600    -0.76900
C70         C  0.10787752  0.45092723  0.46782400     0.85100
O71         O  0.34706599  0.44169465  0.50299797    -0.77000
C72         C  0.46774798  0.46608346  0.38448671     0.85200
C73         C  0.47351474  0.09938080  0.51088415     0.85500
O74         O  0.44476403  0.08574959  0.48332589    -0.79400
N75         N  0.99946524  0.26082772  0.96750296    -0.01900
C76         C  0.48856531  0.30663262  0.94951954     0.00700
C77         C  0.01832259  0.31316259  0.91709937    -0.22200
C78         C  0.05565692  0.27635529  0.91887577    -0.22400
C79         C  0.04632971  0.24870243  0.95190303     0.00600
H80         H  0.02058004  0.34766196  0.89958444     0.14400
H81         H  0.09132967  0.27711259  0.90276389     0.14400
N82         N  0.48536176  0.23095177  0.51589539    -0.01900
C83         C  0.47366356  0.27694112  0.53285743     0.00700
C84         C  0.00127972  0.28298755  0.56604690    -0.22200
C85         C  0.03892095  0.24644954  0.56561390    -0.22400
C86         C  0.03141827  0.21880783  0.53274105     0.00600
H87         H  0.00191390  0.31707285  0.58337964     0.14400
H88         H  0.07366905  0.24742696  0.58256422     0.14400
N89         N  0.21439869  0.99946250  0.01565169    -0.01900
C90         C  0.22535389  0.04467556  0.03355805     0.00700
C91         C  0.19907516  0.04889240  0.06766403    -0.22200
C92         C  0.16334802  0.01098218  0.06751482    -0.22400
C93         C  0.16900725  0.48632865  0.03292242     0.00600
H94         H  0.19743078  0.08241175  0.08579366     0.14400
H95         H  0.12949530  0.01049891  0.08556169     0.14400
N96         N  0.20164188  0.97224325  0.46618986    -0.01900
C97         C  0.21462722  0.01823609  0.44956123     0.00700
C98         C  0.18945187  0.02531685  0.41523306    -0.22200
C99         C  0.15230499  0.98879576  0.41412902    -0.22400
C100        C  0.15662955  0.46126880  0.44797966     0.00600
H101        H  0.18924935  0.06008052  0.39791950     0.14400
H102        H  0.11873817  0.99086687  0.39588796     0.14400
O103        O  0.22023607  0.18133895  0.90779271    -0.76900
C104        C  0.23644651  0.09305465  0.01352783     0.84100
O105        O  0.10447014  0.25657039  0.00309618    -0.78000
O106        O  0.27122213  0.22131679  0.08110098    -0.79500
O107        O  0.33176340  0.26898411  0.95168984    -0.79300
O108        O  0.22560883  0.26652376  0.90120022    -0.77900
Zn109      Zn  0.19546595  0.17845243  0.96242363     1.55700
O110        O  0.35518265  0.21730399  0.00030566    -0.79300
Cd111      Cd  0.25355592  0.28232627  0.95618102     1.59700
Cd112      Cd  0.17720635  0.26110213  0.02712922     1.59600
O113        O  0.24259554  0.35645540  0.97872015    -0.79300
O114        O  0.22766261  0.22976429  0.99219987    -1.89800
Cd115      Cd  0.28300796  0.20028940  0.02431458     1.59900
O116        O  0.19931843  0.33682900  0.03226323    -0.79300
O117        O  0.27136311  0.12161015  0.02730239    -0.77900
C118        C  0.09133255  0.23137878  0.97359954     0.84600
C119        C  0.22221654  0.22152194  0.88662437     0.84300
O120        O  0.20502519  0.10889995  0.98795392    -0.76900
C121        C  0.36565418  0.24278120  0.96983681     0.85100
O122        O  0.12117261  0.19888690  0.95758987    -0.77000
C123        C  0.22504787  0.36830779  0.01172086     0.85200
C124        C  0.22819716  0.22294992  0.09900561     0.85500
O125        O  0.18542649  0.22896860  0.08149239    -0.79400
O126        O  0.21612590  0.24316699  0.58053910    -0.76900
C127        C  0.35253710  0.21358992  0.51392981     0.84100
O128        O  0.18190843  0.31019744  0.45330133    -0.78000
O129        O  0.25990151  0.20135550  0.40443904    -0.79500
O130        O  0.19627418  0.07796902  0.49892040    -0.79300
O131        O  0.20888846  0.15756369  0.58061100    -0.77900
Zn132      Zn  0.24294914  0.25483657  0.52651013     1.55700
O133        O  0.25690326  0.09696060  0.45543867    -0.79300
Cd134      Cd  0.18410847  0.14971681  0.52467954     1.59700
Cd135      Cd  0.16420131  0.23367009  0.45902584     1.59600
O136        O  0.10689730  0.16905919  0.52925316    -0.79300
O137        O  0.21610071  0.20380028  0.49333860    -1.89800
Cd138      Cd  0.27027016  0.17493155  0.46009396     1.58300
O139        O  0.09143534  0.22647538  0.48256465    -0.79300
O140        O  0.34237766  0.18870802  0.48359977    -0.77900
C141        C  0.21066253  0.34035614  0.47200304     0.84600
C142        C  0.21153416  0.20021736  0.59844365     0.84300
O143        O  0.31866936  0.24030027  0.53140623    -0.76900
C144        C  0.22531596  0.06559148  0.47076856     0.85100
O145        O  0.23274830  0.32669596  0.50310060    -0.77000
C146        C  0.07751214  0.20141572  0.51226286     0.85200
C147        C  0.21701090  0.20257363  0.38656567     0.85500
O148        O  0.17433921  0.20417058  0.40472721    -0.79400
C149        C  0.24111405  0.17503808  0.78397526    -0.10300
C150        C  0.21113408  0.21098188  0.76381656     0.12300
C151        C  0.18241595  0.24851685  0.78397521    -0.02100
C152        C  0.18803848  0.25129945  0.82394565    -0.04800
C153        C  0.21898828  0.21593989  0.84434496    -0.15600
C154        C  0.24505493  0.17616314  0.82403941     0.03300
C155        C  0.21149531  0.20855938  0.72141876     0.13300
C156        C  0.14475603  0.28410050  0.76339553     0.63900
H157        H  0.16706499  0.28037733  0.83977552     0.13300
C158        C  0.27738980  0.13517240  0.84404736     0.56000
H159        H  0.26148731  0.14587621  0.76780468     0.09100
C160        C  0.24848976  0.23538939  0.69939189    -0.04700
C161        C  0.24632384  0.23226610  0.65934569    -0.05500
C162        C  0.21085217  0.20047747  0.64090044    -0.15000
C163        C  0.17587933  0.17092423  0.66321676    -0.00600
C164        C  0.17622210  0.17643408  0.70325988    -0.08200
C165        C  0.29134476  0.26537821  0.71825781     0.66100
H166        H  0.27362054  0.25350611  0.64201495     0.11500
C167        C  0.13831676  0.13389327  0.64512694     0.64500
H168        H  0.14952135  0.15495571  0.72092975     0.08900
F169        F  0.31162961  0.15786226  0.86859591    -0.18600
F170        F  0.30566192  0.10591991  0.81843702    -0.14800
F171        F  0.24574409  0.10234822  0.86444199    -0.18300
F172        F  0.10691839  0.25509573  0.74641521    -0.21700
F173        F  0.16976496  0.31240079  0.73549803    -0.23100
F174        F  0.12111218  0.31824353  0.78816807    -0.17100
F175        F  0.10449515  0.11335169  0.67170878    -0.19600
F176        F  0.16515897  0.09347781  0.62874506    -0.20800
F177        F  0.10960515  0.15911507  0.61744496    -0.18000
F178        F  0.32291541  0.28914165  0.69164593    -0.18000
F179        F  0.32139583  0.23215477  0.73992395    -0.21900
F180        F  0.27105455  0.30297705  0.74171158    -0.23500
C181        C  0.18178052  0.22026914  0.28107441    -0.10300
C182        C  0.22485871  0.19823180  0.26329440     0.12300
C183        C  0.26579434  0.17863345  0.28574296    -0.02100
C184        C  0.26085185  0.17959824  0.32577698    -0.04800
C185        C  0.21740690  0.20134243  0.34395382    -0.15600
C186        C  0.17720768  0.22274220  0.32104851     0.03300
C187        C  0.22750847  0.20127459  0.22100220     0.13300
C188        C  0.31504947  0.15837213  0.26751240     0.63900
H189        H  0.29157099  0.16388442  0.34325622     0.13300
C190        C  0.13038811  0.24978579  0.33804173     0.56000
H191        H  0.15182413  0.23635865  0.26299586     0.09100
C192        C  0.20167125  0.16608734  0.19721144    -0.04700
C193        C  0.20271137  0.17440580  0.15735018    -0.05500
C194        C  0.22795132  0.21696019  0.14110904    -0.15000
C195        C  0.25189203  0.25304679  0.16519120    -0.00600
C196        C  0.25177607  0.24417256  0.20481019    -0.08200
C197        C  0.17290275  0.12041173  0.21394885     0.66100
H198        H  0.18372094  0.14780877  0.13851499     0.11500
C199        C  0.27381142  0.30268946  0.14934535     0.64500
H200        H  0.26933169  0.27161582  0.22378557     0.08900
F201        F  0.10027099  0.27328086  0.31026581    -0.18600
F202        F  0.14595165  0.28762186  0.36295887    -0.14800
F203        F  0.09995380  0.21449223  0.35715158    -0.18300
F204        F  0.33904167  0.19761585  0.24759722    -0.21700
F205        F  0.30406904  0.11903425  0.24260363    -0.23100
F206        F  0.34933164  0.13951810  0.29448691    -0.17100
F207        F  0.23520076  0.32950232  0.13051211    -0.19600
F208        F  0.31371273  0.29223933  0.12431220    -0.20800
F209        F  0.29261213  0.33386802  0.17785276    -0.18000
F210        F  0.15121834  0.09054367  0.18580382    -0.18000
F211        F  0.13377576  0.13743236  0.23766560    -0.21900
F212        F  0.20621195  0.08954491  0.23481771    -0.23500
C213        C  0.00507448  0.52676455  0.77775089    -0.10300
C214        C  0.47219858  0.49111773  0.76080368     0.12300
C215        C  0.44518618  0.45563638  0.78411342    -0.02100
C216        C  0.44925446  0.45961059  0.82406245    -0.04800
C217        C  0.48237022  0.49508087  0.84129307    -0.15600
C218        C  0.01181139  0.52860802  0.81767238     0.03300
C219        C  0.47234622  0.48733529  0.71845914     0.13300
C220        C  0.41438823  0.41214241  0.76683086     0.63900
H221        H  0.42800993  0.43338610  0.84229315     0.13300
C222        C  0.05056810  0.06574425  0.83410991     0.56000
H223        H  0.02711276  0.05185783  0.75912881     0.09100
C224        C  0.43721472  0.01449574  0.69490205    -0.04700
C225        C  0.43835447  0.00575141  0.65522088    -0.05500
C226        C  0.47603816  0.47413130  0.63832301    -0.15000
C227        C  0.51423105  0.45064123  0.66193228    -0.00600
C228        C  0.51063483  0.45667718  0.70172440    -0.08200
C229        C  0.40054801  0.05445637  0.71138290     0.66100
H230        H  0.41079071  0.02516705  0.63687089     0.11500
C231        C  0.05870729  0.41929442  0.64577668     0.64500
H232        H  0.53834514  0.43800206  0.72039664     0.08900
F233        F  0.02709736  0.09638733  0.86125668    -0.18600
F234        F  0.07119157  0.59774470  0.80625035    -0.14800
F235        F  0.09072290  0.03845071  0.85066062    -0.18300
F236        F  0.44666786  0.38093972  0.74551441    -0.21700
F237        F  0.37616706  0.43169459  0.74341023    -0.23100
F238        F  0.39130784  0.38181346  0.79459626    -0.17100
F239        F  0.09124127  0.45108525  0.62523407    -0.19600
F240        F  0.04022501  0.38142312  0.62229516    -0.20800
F241        F  0.58748079  0.39547031  0.67417668    -0.18000
F242        F  0.36995380  0.07695000  0.68344431    -0.18000
F243        F  0.42860446  0.09291549  0.72843375    -0.21900
F244        F  0.36864059  0.03232168  0.73839961    -0.23500
C245        C  0.99441085  0.52175159  0.20299981    -0.10300
C246        C  0.47061087  0.47896626  0.21972779     0.12300
C247        C  0.44671955  0.44210345  0.19645276    -0.02100
C248        C  0.45104249  0.44732493  0.15658214    -0.04800
C249        C  0.47611869  0.48945886  0.13938906    -0.15600
C250        C  0.99712048  0.52828632  0.16308304     0.03300
C251        C  0.47050983  0.47450614  0.26193767     0.13300
C252        C  0.41545002  0.39848103  0.21371271     0.63900
H253        H  0.43363142  0.41887406  0.13839149     0.13300
C254        C  0.02293365  0.07597842  0.14690968     0.56000
H255        H  0.01094369  0.55006727  0.22175416     0.09100
C256        C  0.51152680  0.45060418  0.28206940    -0.04700
C257        C  0.50851642  0.44733001  0.32216266    -0.05500
C258        C  0.46708870  0.46916639  0.34233251    -0.15000
C259        C  0.42655153  0.99415217  0.32207550    -0.00600
C260        C  0.42892990  0.99615715  0.28198437    -0.08200
C261        C  0.05873732  0.43004820  0.26125063     0.66100
H262        H  0.03926878  0.42899503  0.33821910     0.11500
C263        C  0.38043780  0.01748350  0.34257721     0.64500
H264        H  0.39857244  0.01501032  0.26584387     0.08900
F265        F  0.04395561  0.60603893  0.17532645    -0.18600
F266        F  0.98735182  0.10605753  0.12748289    -0.14800
F267        F  0.06230769  0.06184607  0.12243678    -0.18300
F268        F  0.37387043  0.41867160  0.23346806    -0.21700
F269        F  0.44524258  0.36950113  0.23858990    -0.23100
F270        F  0.39686675  0.36590511  0.18600537    -0.17100
F271        F  0.34303057  0.03451977  0.31731454    -0.19600
F272        F  0.39561228  0.05898463  0.36411998    -0.20800
F273        F  0.35844934  0.98098359  0.36619582    -0.18000
F274        F  0.09405032  0.40811242  0.28616928    -0.18000
F275        F  0.08272984  0.46983595  0.24191616    -0.21900
F276        F  0.54469453  0.39296579  0.23531372    -0.23500
N277        N  0.46051528  0.72171966  0.96754878    -0.01900
C278        C  0.47315482  0.67620262  0.95035532     0.00700
C279        C  0.44740822  0.67051692  0.91633757    -0.22200
C280        C  0.41087470  0.70819499  0.91567619    -0.22400
C281        C  0.41489140  0.73361312  0.94991674     0.00600
H282        H  0.44704016  0.63654015  0.89865340     0.14400
H283        H  0.37760111  0.70854873  0.89704762     0.14400
N284        N  0.44641965  0.69178332  0.51632316    -0.01900
C285        C  0.45903639  0.64531048  0.53252972     0.00700
C286        C  0.43251152  0.63708361  0.56615877    -0.22200
C287        C  0.39547239  0.67426120  0.56751299    -0.22400
C288        C  0.40077816  0.70278237  0.53427913     0.00600
H289        H  0.43206790  0.60178483  0.58286543     0.14400
H290        H  0.36133202  0.67210524  0.58530858     0.14400
N291        N  0.25468466  0.96096040  0.01496509    -0.01900
C292        C  0.24533750  0.91375049  0.03132335     0.00700
C293        C  0.27761616  0.90391598  0.06170240    -0.22200
C294        C  0.31287465  0.94191972  0.06165990    -0.22400
C295        C  0.30128392  0.97299977  0.03075018     0.00600
H296        H  0.28220190  0.86763391  0.07664740     0.14400
H297        H  0.34907300  0.94029203  0.07690997     0.14400
N298        N  0.24049645  0.93232457  0.46729110    -0.01900
C299        C  0.22939568  0.88572570  0.45125488     0.00700
C300        C  0.26139075  0.87485849  0.42084093    -0.22200
C301        C  0.29910009  0.91039670  0.42160094    -0.22400
C302        C  0.28787440  0.94244241  0.45171982     0.00600
H303        H  0.26391364  0.83877380  0.40561537     0.14400
H304        H  0.33582870  0.90634367  0.40722791     0.14400
O305        O  0.36051123  0.97026190  0.97953119    -0.76900
C306        C  0.48412355  0.99535621  0.88381482     0.84100
O307        O  0.99728996  0.86420709  0.00094387    -0.78000
O308        O  0.10921372  0.50577510  0.98325396    -0.79500
O309        O  0.46035255  0.61486733  0.99926080    -0.79300
O310        O  0.37465849  0.02400900  0.02790207    -0.77900
Zn311      Zn  0.43208903  0.96274726  0.95616818     1.55700
O312        O  0.52056719  0.59929569  0.95469901    -0.79300
Cd313      Cd  0.45134512  0.54242438  0.02322394     1.59700
Cd314      Cd  0.00987175  0.93652856  0.02397798     1.59600
O315        O  0.47781891  0.03310144  0.07863859    -0.79300
O316        O  0.48241767  0.99043438  0.98958565    -1.89800
Cd317      Cd  0.03716924  0.52124618  0.95797305     1.59900
O318        O  0.98194598  0.94751982  0.07908423    -0.79300
O319        O  0.52722586  0.49866787  0.90127859    -0.77900
C320        C  0.47498915  0.85410914  0.96948178     0.84600
C321        C  0.34584377  0.99313498  0.00988297     0.84300
O322        O  0.44177326  0.99036413  0.90224147    -0.76900
C323        C  0.48776698  0.62894833  0.97078487     0.85100
O324        O  0.44897161  0.88774670  0.95102724    -0.77000
C325        C  0.47922272  0.99031996  0.09682843     0.85200
C326        C  0.12048600  0.97775019  0.01235878     0.85500
O327        O  0.08772359  0.94885747  0.02894080    -0.79400
O328        O  0.43623396  0.85913213  0.53074093    -0.76900
C329        C  0.47483536  0.96802309  0.59601528     0.84100
O330        O  0.36083617  0.99422531  0.45317111    -0.78000
O331        O  0.50761839  0.56985656  0.52561324    -0.79500
O332        O  0.07607545  0.92101950  0.45149413    -0.79300
O333        O  0.98367135  0.83502242  0.48044189    -0.77900
Zn334      Zn  0.41941059  0.93442144  0.52562111     1.55700
O335        O  0.09544616  0.47885373  0.49630819    -0.79300
Cd336      Cd  0.99764582  0.90803601  0.45650196     1.59700
Cd337      Cd  0.43695389  0.51430524  0.45836735     1.59600
O338        O  0.97156000  0.92187242  0.40093343    -0.79300
O339        O  0.46909130  0.96132339  0.49068845    -1.89800
Cd340      Cd  0.02388117  0.49229254  0.52120333     1.59900
O341        O  0.46492788  0.00767564  0.40340036    -0.79300
O342        O  0.51691333  0.46823017  0.57724609    -0.77900
C343        C  0.33224253  0.96346550  0.47199894     0.84600
C344        C  0.46136539  0.82503087  0.51225282     0.84300
O345        O  0.43138551  0.96399479  0.57905362    -0.76900
C346        C  0.10785681  0.95091434  0.46771084     0.85100
O347        O  0.34704889  0.94161817  0.50296424    -0.77000
C348        C  0.46767104  0.96597195  0.38444714     0.85200
C349        C  0.47347330  0.59941191  0.51098832     0.85500
O350        O  0.44476959  0.58580600  0.48339685    -0.79400
N351        N  0.99952155  0.76085187  0.96746019    -0.01900
C352        C  0.48861983  0.80662254  0.94943264     0.00700
C353        C  0.01837635  0.81316097  0.91704269    -0.22200
C354        C  0.05572943  0.77637078  0.91884200    -0.22400
C355        C  0.04639623  0.74872780  0.95187477     0.00600
H356        H  0.02062481  0.84765201  0.89951659     0.14400
H357        H  0.09140261  0.77713110  0.90273955     0.14400
N358        N  0.48538638  0.73092875  0.51598896    -0.01900
C359        C  0.47373462  0.77694521  0.53292331     0.00700
C360        C  0.00136003  0.78298824  0.56611380    -0.22200
C361        C  0.03895805  0.74640384  0.56570522    -0.22400
C362        C  0.03143623  0.71874794  0.53283955     0.00600
H363        H  0.00201574  0.81708319  0.58343651     0.14400
H364        H  0.07370232  0.74736222  0.58265669     0.14400
N365        N  0.21444713  0.49942846  0.01565177    -0.01900
C366        C  0.22538839  0.54463766  0.03356888     0.00700
C367        C  0.19913941  0.54881176  0.06769017    -0.22200
C368        C  0.16343591  0.51087687  0.06754382    -0.22400
C369        C  0.16894308  0.98639345  0.03291297     0.00600
H370        H  0.19749620  0.58231326  0.08583748     0.14400
H371        H  0.12960353  0.51036210  0.08560632     0.14400
N372        N  0.20166446  0.47225905  0.46630813    -0.01900
C373        C  0.21460795  0.51827337  0.44969302     0.00700
C374        C  0.18942819  0.52535812  0.41536792    -0.22200
C375        C  0.15232009  0.48880106  0.41424989    -0.22400
C376        C  0.15660286  0.96126904  0.44786169     0.00600
H377        H  0.18920269  0.56012429  0.39806518     0.14400
H378        H  0.11874896  0.49085605  0.39600491     0.14400
O379        O  0.22039249  0.68136479  0.90784600    -0.76900
C380        C  0.23647614  0.59303469  0.01355494     0.84100
O381        O  0.10449024  0.75654705  0.00311724    -0.78000
O382        O  0.27126410  0.72123818  0.08115075    -0.79500
O383        O  0.33181519  0.76901251  0.95175329    -0.79300
O384        O  0.22562430  0.76655684  0.90127791    -0.77900
Zn385      Zn  0.19554811  0.67847426  0.96246014     1.55700
O386        O  0.35524196  0.71728323  0.00033943    -0.79300
Cd387      Cd  0.25360360  0.78234443  0.95625649     1.59700
Cd388      Cd  0.17722452  0.76108494  0.02718881     1.59600
O389        O  0.24261719  0.85645844  0.97881212    -0.79300
O390        O  0.22771463  0.72977048  0.99226624    -1.89800
Cd391      Cd  0.28306364  0.70025692  0.02435837     1.59900
O392        O  0.19930216  0.83682710  0.03233805    -0.79300
O393        O  0.27140988  0.62157268  0.02732617    -0.77900
C394        C  0.09139564  0.73140288  0.97358512     0.84600
C395        C  0.22227317  0.72155989  0.88668648     0.84300
O396        O  0.20505035  0.60890583  0.98799194    -0.76900
C397        C  0.36571017  0.74278532  0.96988111     0.85100
O398        O  0.12126905  0.69894776  0.95756819    -0.77000
C399        C  0.22503260  0.86831352  0.01180130     0.85200
C400        C  0.22824198  0.72288389  0.09905979     0.85500
O401        O  0.18546721  0.72893498  0.08155395    -0.79400
O402        O  0.21601742  0.74337360  0.58053877    -0.76900
C403        C  0.35252526  0.71365984  0.51401663     0.84100
O404        O  0.18178898  0.81016926  0.45331091    -0.78000
O405        O  0.25993437  0.70134644  0.40450657    -0.79500
O406        O  0.19634524  0.57799866  0.49907596    -0.79300
O407        O  0.20900160  0.65775507  0.58070693    -0.77900
Zn408      Zn  0.24292523  0.75491124  0.52652624     1.55700
O409        O  0.25690895  0.59698305  0.45554188    -0.79300
Cd410      Cd  0.18418733  0.64977643  0.52479349     1.59700
Cd411      Cd  0.16416335  0.73361813  0.45906592     1.59600
O412        O  0.10697329  0.66908457  0.52938428    -0.79300
O413        O  0.21610211  0.70383114  0.49338869    -1.89800
Cd414      Cd  0.27028792  0.67495278  0.46017047     1.58300
O415        O  0.09139671  0.72634420  0.48261099    -0.79300
O416        O  0.34238074  0.68875402  0.48369423    -0.77900
C417        C  0.21058344  0.84033880  0.47197014     0.84600
C418        C  0.21150362  0.70045499  0.59849345     0.84300
O419        O  0.31864682  0.74038352  0.53147231    -0.76900
C420        C  0.22534294  0.56561731  0.47090032     0.85100
O421        O  0.23272231  0.82670603  0.50305126    -0.77000
C422        C  0.07753165  0.70135475  0.51235816     0.85200
C423        C  0.21705278  0.70254605  0.38662114     0.85500
O424        O  0.17436804  0.70411836  0.40476938    -0.79400
C425        C  0.24104566  0.67531579  0.78395576    -0.10300
C426        C  0.21093595  0.71123521  0.76387678     0.12300
C427        C  0.18206584  0.74856206  0.78412593    -0.02100
C428        C  0.18781747  0.75131011  0.82408745    -0.04800
C429        C  0.21893054  0.71600899  0.84440650    -0.15600
C430        C  0.24498752  0.67629350  0.82402539     0.03300
C431        C  0.21124662  0.70893682  0.72147268     0.13300
C432        C  0.14405417  0.78389065  0.76366350     0.63900
H433        H  0.16678306  0.78028943  0.83998117     0.13300
C434        C  0.27728076  0.63520314  0.84396017     0.56000
H435        H  0.26148981  0.64627052  0.76771815     0.09100
C436        C  0.24803290  0.73606303  0.69944965    -0.04700
C437        C  0.24594719  0.73286728  0.65940326    -0.05500
C438        C  0.21072471  0.70081022  0.64095068    -0.15000
C439        C  0.17587909  0.67109541  0.66325848    -0.00600
C440        C  0.17618784  0.67658962  0.70330274    -0.08200
C441        C  0.29059104  0.76646873  0.71831760     0.66100
H442        H  0.27311850  0.75428168  0.64207714     0.11500
C443        C  0.13845688  0.63393360  0.64515543     0.64500
H444        H  0.14962739  0.65492889  0.72096595     0.08900
F445        F  0.31175791  0.65780264  0.86837164    -0.18600
F446        F  0.30526971  0.60578284  0.81828741    -0.14800
F447        F  0.24563043  0.60253020  0.86448732    -0.18300
F448        F  0.10638285  0.75461131  0.74674018    -0.21700
F449        F  0.16871508  0.81243955  0.73573551    -0.23100
F450        F  0.12023648  0.81779752  0.78852424    -0.17100
F451        F  0.10466638  0.61330489  0.67172103    -0.19600
F452        F  0.16543734  0.59359031  0.62879926    -0.20800
F453        F  0.10969815  0.65905695  0.61745138    -0.18000
F454        F  0.32202739  0.79040948  0.69170428    -0.18000
F455        F  0.32086004  0.73357221  0.74008703    -0.21900
F456        F  0.26993339  0.80398252  0.74167243    -0.23500
C457        C  0.18187620  0.72025794  0.28112119    -0.10300
C458        C  0.22494853  0.69819022  0.26335186     0.12300
C459        C  0.26587280  0.67858706  0.28580869    -0.02100
C460        C  0.26091837  0.67955839  0.32584305    -0.04800
C461        C  0.21747275  0.70132116  0.34400901    -0.15600
C462        C  0.17729733  0.72274631  0.32109495     0.03300
C463        C  0.22760443  0.70121259  0.22105907     0.13300
C464        C  0.31512595  0.65830421  0.26758632     0.63900
H465        H  0.29161658  0.66383345  0.34332655     0.13300
C466        C  0.13050426  0.74984894  0.33807788     0.56000
H467        H  0.15194360  0.73635341  0.26304184     0.09100
C468        C  0.20176748  0.66601507  0.19727706    -0.04700
C469        C  0.20278879  0.67432844  0.15741400    -0.05500
C470        C  0.22801170  0.71688805  0.14116388    -0.15000
C471        C  0.25196636  0.75297479  0.16523855    -0.00600
C472        C  0.25186443  0.74410710  0.20485750    -0.08200
C473        C  0.17301458  0.62033883  0.21402886     0.66100
H474        H  0.18379543  0.64772549  0.13858557     0.11500
C475        C  0.27387419  0.80261708  0.14938453     0.64500
H476        H  0.26942546  0.77156337  0.22383098     0.08900
F477        F  0.10041387  0.77335987  0.31029349    -0.18600
F478        F  0.14611051  0.78768145  0.36298322    -0.14800
F479        F  0.10002831  0.71460260  0.35719865    -0.18300
F480        F  0.33909674  0.69751308  0.24761812    -0.21700
F481        F  0.30414431  0.61891122  0.24272613    -0.23100
F482        F  0.34942896  0.63951820  0.29457112    -0.17100
F483        F  0.23524282  0.82943112  0.13057704    -0.19600
F484        F  0.31374998  0.79217211  0.12432739    -0.20800
F485        F  0.29270478  0.83379062  0.17788348    -0.18000
F486        F  0.15131942  0.59046148  0.18589447    -0.18000
F487        F  0.13389915  0.63735930  0.23775618    -0.21900
F488        F  0.20633808  0.58948073  0.23489190    -0.23500
C489        C  0.00523939  0.02664986  0.77773734    -0.10300
C490        C  0.47234109  0.99100932  0.76076157     0.12300
C491        C  0.44530883  0.95552471  0.78405628    -0.02100
C492        C  0.44935396  0.95948852  0.82400775    -0.04800
C493        C  0.48241866  0.99499276  0.84125323    -0.15600
C494        C  0.01190049  0.02852546  0.81766408     0.03300
C495        C  0.47248755  0.98726432  0.71841644     0.13300
C496        C  0.41445462  0.91208264  0.76675480     0.63900
H497        H  0.42809946  0.93326409  0.84222830     0.13300
C498        C  0.05057201  0.56575057  0.83409081     0.56000
H499        H  0.02693613  0.55196717  0.75912983     0.09100
C500        C  0.43708385  0.51454818  0.69492174    -0.04700
C501        C  0.43824929  0.50577496  0.65524438    -0.05500
C502        C  0.47614522  0.97413449  0.63827382    -0.15000
C503        C  0.51436614  0.95064572  0.66186065    -0.00600
C504        C  0.51078038  0.95663438  0.70165798    -0.08200
C505        C  0.40038048  0.55449646  0.71137444     0.66100
H506        H  0.41069373  0.52518141  0.63687445     0.11500
C507        C  0.05889687  0.91934558  0.64567893     0.64500
H508        H  0.53850949  0.93795433  0.72031484     0.08900
F509        F  0.02721985  0.59638732  0.86129689    -0.18600
F510        F  0.07121616  0.09772875  0.80627520    -0.14800
F511        F  0.09073113  0.53837232  0.85056052    -0.18300
F512        F  0.44665004  0.88094769  0.74531588    -0.21700
F513        F  0.37614835  0.93171508  0.74344693    -0.23100
F514        F  0.39147505  0.88166183  0.79451110    -0.17100
F515        F  0.09142741  0.95121773  0.62520315    -0.19600
F516        F  0.04045909  0.88153849  0.62212274    -0.20800
F517        F  0.58764384  0.89548919  0.67405248    -0.18000
F518        F  0.36987385  0.57703819  0.68340294    -0.18000
F519        F  0.42839127  0.59292673  0.72850138    -0.21900
F520        F  0.36838984  0.53232566  0.73832023    -0.23500
C521        C  0.99424884  0.02173872  0.20297315    -0.10300
C522        C  0.47043017  0.97897895  0.21968267     0.12300
C523        C  0.44659808  0.94207872  0.19640698    -0.02100
C524        C  0.45098425  0.94725493  0.15653595    -0.04800
C525        C  0.47605231  0.98939143  0.13934009    -0.15600
C526        C  0.99701639  0.02825203  0.16305616     0.03300
C527        C  0.47034812  0.97450634  0.26189505     0.13300
C528        C  0.41530634  0.89847325  0.21366514     0.63900
H529        H  0.43361834  0.91877830  0.13834899     0.13300
C530        C  0.02304314  0.57600551  0.14692986     0.56000
H531        H  0.01074625  0.05007409  0.22173444     0.09100
C532        C  0.51137208  0.95057773  0.28200179    -0.04700
C533        C  0.50837762  0.94724175  0.32209380    -0.05500
C534        C  0.46696908  0.96906628  0.34229153    -0.15000
C535        C  0.42666669  0.49419940  0.32208841    -0.00600
C536        C  0.42907554  0.49616820  0.28200023    -0.08200
C537        C  0.05857965  0.93001732  0.26117794     0.66100
H538        H  0.03911858  0.92883924  0.33814829     0.11500
C539        C  0.38051371  0.51750554  0.34255481     0.64500
H540        H  0.39872098  0.51500129  0.26583705     0.08900
F541        F  0.04382412  0.10601764  0.17531176    -0.18600
F542        F  0.98746102  0.60609624  0.12751321    -0.14800
F543        F  0.06240053  0.56185968  0.12244609    -0.18300
F544        F  0.37366523  0.91868869  0.23333619    -0.21700
F545        F  0.44504177  0.86955269  0.23861766    -0.23100
F546        F  0.39681649  0.86583618  0.18596342    -0.17100
F547        F  0.34308969  0.53443254  0.31726580    -0.19600
F548        F  0.39562363  0.55907151  0.36405401    -0.20800
F549        F  0.35856933  0.48102239  0.36620917    -0.18000
F550        F  0.09390563  0.90806091  0.28607610    -0.18000
F551        F  0.08255511  0.96983838  0.24186943    -0.21900
F552        F  0.54453820  0.89301700  0.23519263    -0.23500
N553        N  0.96045315  0.22170686  0.96755871    -0.01900
C554        C  0.97311256  0.17619234  0.95036449     0.00700
C555        C  0.94741952  0.17052577  0.91632420    -0.22200
C556        C  0.91088996  0.20820944  0.91563376    -0.22400
C557        C  0.91486219  0.23360934  0.94988850     0.00600
H558        H  0.94707634  0.13654933  0.89862629     0.14400
H559        H  0.87768962  0.20858045  0.89699284     0.14400
N560        N  0.94643823  0.19175590  0.51621826    -0.01900
C561        C  0.95909784  0.14529462  0.53243037     0.00700
C562        C  0.93258505  0.13705761  0.56606413    -0.22200
C563        C  0.89549599  0.17418416  0.56740254    -0.22400
C564        C  0.90078141  0.20270275  0.53416730     0.00600
H565        H  0.93217452  0.10176125  0.58277777     0.14400
H566        H  0.86135183  0.17199691  0.58519648     0.14400
N567        N  0.75475700  0.46095714  0.01495291    -0.01900
C568        C  0.74543941  0.41370586  0.03125430     0.00700
C569        C  0.77774761  0.40380304  0.06160391    -0.22200
C570        C  0.81297133  0.44183660  0.06161594    -0.22400
C571        C  0.80134351  0.47299974  0.03075925     0.00600
H572        H  0.78235290  0.36748879  0.07649931     0.14400
H573        H  0.84917843  0.44019318  0.07685759     0.14400
N574        N  0.74055048  0.43237108  0.46734159    -0.01900
C575        C  0.72947679  0.38578014  0.45128133     0.00700
C576        C  0.76145902  0.37496813  0.42084977    -0.22200
C577        C  0.79913467  0.41053857  0.42161112    -0.22400
C578        C  0.78790394  0.44254540  0.45175144     0.00600
H579        H  0.76400001  0.33889844  0.40560186     0.14400
H580        H  0.83586263  0.40651758  0.40722851     0.14400
O581        O  0.86057257  0.47032035  0.97955810    -0.76900
C582        C  0.98412751  0.49542402  0.88386082     0.84100
O583        O  0.49727752  0.36420670  0.00102275    -0.78000
O584        O  0.60915632  0.00580508  0.98321729    -0.79500
O585        O  0.96033118  0.11484873  0.99927295    -0.79300
O586        O  0.87469091  0.52405725  0.02793857    -0.77900
Zn587      Zn  0.93214061  0.46278947  0.95622655     1.55700
O588        O  0.02049670  0.09926773  0.95467834    -0.79300
Cd589      Cd  0.95131764  0.04238626  0.02320538     1.59700
Cd590      Cd  0.50989681  0.43655372  0.02401776     1.59600
O591        O  0.97784542  0.53317184  0.07868923    -0.79300
O592        O  0.98246732  0.49047462  0.98963858    -1.89800
Cd593      Cd  0.53711147  0.02122492  0.95793241     1.59900
O594        O  0.48198273  0.44758630  0.07911948    -0.79300
O595        O  0.02721744  0.99860509  0.90127802    -0.77900
C596        C  0.97496671  0.35412409  0.96957190     0.84600
C597        C  0.84589050  0.49318104  0.00990819     0.84300
O598        O  0.94179859  0.49040644  0.90230760    -0.76900
C599        C  0.98772311  0.12892897  0.97078525     0.85100
O600        O  0.94898510  0.38778159  0.95110993    -0.77000
C601        C  0.97925584  0.49039072  0.09688083     0.85200
C602        C  0.62053207  0.47772347  0.01237698     0.85500
O603        O  0.58775589  0.44885205  0.02896548    -0.79400
O604        O  0.93618453  0.35914318  0.53072478    -0.76900
C605        C  0.97474888  0.46800463  0.59607423     0.84100
O606        O  0.86086706  0.49431808  0.45321505    -0.78000
O607        O  0.00766771  0.06983510  0.52551066    -0.79500
O608        O  0.57610954  0.42104098  0.45158430    -0.79300
O609        O  0.48363585  0.33507092  0.48039456    -0.77900
Zn610      Zn  0.91939521  0.43444656  0.52564714     1.55700
O611        O  0.59545198  0.97881137  0.49620407    -0.79300
Cd612      Cd  0.49767116  0.40810842  0.45652660     1.59700
Cd613      Cd  0.93693436  0.01422339  0.45833338     1.59600
O614        O  0.47167136  0.42200049  0.40094991    -0.79300
O615        O  0.96909399  0.46137545  0.49074076    -1.89800
Cd616      Cd  0.52390584  0.99226430  0.52111288     1.59900
O617        O  0.96495264  0.50778715  0.40344992    -0.79300
O618        O  0.01698302  0.96824646  0.57719442    -0.77900
C619        C  0.83226685  0.46355495  0.47203362     0.84600
C620        C  0.96130429  0.32504852  0.51222080     0.84300
O621        O  0.93131506  0.46397875  0.57909267    -0.76900
C622        C  0.60787942  0.45094082  0.46780660     0.85100
O623        O  0.84705948  0.44168968  0.50299319    -0.77000
C624        C  0.96775838  0.46608802  0.38449449     0.85200
C625        C  0.97350856  0.09938120  0.51089366     0.85500
O626        O  0.94476706  0.08574842  0.48333082    -0.79400
N627        N  0.49946204  0.26082589  0.96750888    -0.01900
C628        C  0.98856959  0.30663389  0.94951242     0.00700
C629        C  0.51830797  0.31315896  0.91710123    -0.22200
C630        C  0.55564023  0.27634909  0.91887153    -0.22400
C631        C  0.54632175  0.24869965  0.95190211     0.00600
H632        H  0.52056147  0.34765704  0.89958518     0.14400
H633        H  0.59130465  0.27710432  0.90275547     0.14400
N634        N  0.98535644  0.23095086  0.51590633    -0.01900
C635        C  0.97365537  0.27693997  0.53286806     0.00700
C636        C  0.50129237  0.28298933  0.56603442    -0.22200
C637        C  0.53893497  0.24645258  0.56559710    -0.22400
C638        C  0.53142833  0.21881206  0.53272450     0.00600
H639        H  0.50192759  0.31707003  0.58336481     0.14400
H640        H  0.57368775  0.24743033  0.58254548     0.14400
N641        N  0.71440166  0.99946689  0.01563533    -0.01900
C642        C  0.72535314  0.04468586  0.03353486     0.00700
C643        C  0.69907076  0.04891174  0.06763880    -0.22200
C644        C  0.66334319  0.01100165  0.06749264    -0.22400
C645        C  0.66900797  0.48632567  0.03292314     0.00600
H646        H  0.69742450  0.08243373  0.08576252     0.14400
H647        H  0.62948977  0.01052385  0.08553648     0.14400
N648        N  0.70164771  0.97224196  0.46618881    -0.01900
C649        C  0.71463574  0.01823048  0.44955376     0.00700
C650        C  0.68946658  0.02530022  0.41522178    -0.22200
C651        C  0.65232050  0.98877803  0.41412014    -0.22400
C652        C  0.65663031  0.46128588  0.44796130     0.00600
H653        H  0.68926728  0.06005782  0.39790203     0.14400
H654        H  0.61875708  0.99084271  0.39587480     0.14400
O655        O  0.72020243  0.18137062  0.90776164    -0.76900
C656        C  0.73645104  0.09306114  0.01350010     0.84100
O657        O  0.60447676  0.25658645  0.00308278    -0.78000
O658        O  0.77121870  0.22131423  0.08108228    -0.79500
O659        O  0.83177039  0.26898009  0.95166527    -0.79300
O660        O  0.72559280  0.26655472  0.90117537    -0.77900
Zn661      Zn  0.69546374  0.17846531  0.96240100     1.55700
O662        O  0.85518524  0.21731428  0.00029110    -0.79300
Cd663      Cd  0.75356280  0.28233912  0.95615810     1.59700
Cd664      Cd  0.67721401  0.26111295  0.02711005     1.59600
O665        O  0.74261841  0.35646433  0.97871300    -0.79300
O666        O  0.72766618  0.22977562  0.99217641    -1.89800
Cd667      Cd  0.78300861  0.20029672  0.02429369     1.59900
O668        O  0.69933066  0.33683720  0.03225152    -0.79300
O669        O  0.77136585  0.12161707  0.02727641    -0.77900
C670        C  0.59133111  0.23138463  0.97359331     0.84600
C671        C  0.72217651  0.22155658  0.88659586     0.84300
O672        O  0.70503176  0.10890656  0.98792463    -0.76900
C673        C  0.86566014  0.24278145  0.96981894     0.85100
O674        O  0.62116685  0.19888900  0.95758407    -0.77000
C675        C  0.72506600  0.36831569  0.01171279     0.85200
C676        C  0.72819174  0.22294574  0.09898440     0.85500
O677        O  0.68542381  0.22896830  0.08146906    -0.79400
O678        O  0.71609702  0.24321292  0.58049533    -0.76900
C679        C  0.85253155  0.21359817  0.51390963     0.84100
O680        O  0.68190529  0.31020331  0.45326016    -0.78000
O681        O  0.75989796  0.20135742  0.40441180    -0.79500
O682        O  0.69628894  0.07797534  0.49890803    -0.79300
O683        O  0.70890210  0.15760731  0.58058544    -0.77900
Zn684      Zn  0.74294498  0.25485325  0.52647245     1.55700
O685        O  0.75690524  0.09696281  0.45541596    -0.79300
Cd686      Cd  0.68412130  0.14973224  0.52465593     1.59700
Cd687      Cd  0.66419926  0.23367547  0.45899603     1.59600
O688        O  0.60690923  0.16906839  0.52923037    -0.79300
O689        O  0.71610275  0.20381029  0.49330627    -1.89800
Cd690      Cd  0.77027317  0.17493597  0.46006641     1.58300
O691        O  0.59143655  0.22648111  0.48254150    -0.79300
O692        O  0.84237875  0.18871627  0.48357798    -0.77900
C693        C  0.71066175  0.34036197  0.47195990     0.84600
C694        C  0.71151459  0.20027028  0.59840955     0.84300
O695        O  0.81866101  0.24031138  0.53138071    -0.76900
C696        C  0.72532438  0.06559351  0.47075359     0.85100
O697        O  0.73275083  0.32670241  0.50305563    -0.77000
C698        C  0.57751938  0.20142209  0.51224161     0.85200
C699        C  0.71700532  0.20257013  0.38654099     0.85500
O700        O  0.67433460  0.20416167  0.40470386    -0.79400
C701        C  0.74102952  0.17511190  0.78393156    -0.10300
C702        C  0.71101833  0.21104383  0.76378713     0.12300
C703        C  0.68226602  0.24853600  0.78396322    -0.02100
C704        C  0.68792132  0.25132041  0.82393218    -0.04800
C705        C  0.71891287  0.21598000  0.84431599    -0.15600
C706        C  0.74497627  0.17621420  0.82399602     0.03300
C707        C  0.71137952  0.20864824  0.72138715     0.13300
C708        C  0.64452607  0.28405722  0.76340517     0.63900
H709        H  0.66693651  0.28037865  0.83977382     0.13300
C710        C  0.77730829  0.13520991  0.84399112     0.56000
H711        H  0.76142300  0.14596978  0.76774652     0.09100
C712        C  0.74832622  0.23555554  0.69936747    -0.04700
C713        C  0.74619287  0.23241604  0.65932046    -0.05500
C714        C  0.71079710  0.20055073  0.64086708    -0.15000
C715        C  0.67585930  0.17094510  0.66317569    -0.00600
C716        C  0.67617489  0.17645622  0.70321943    -0.08200
C717        C  0.79110496  0.26564328  0.71824189     0.66100
H718        H  0.77345641  0.25370240  0.64199820     0.11500
C719        C  0.63835640  0.13386124  0.64507650     0.64500
H720        H  0.64950819  0.15492651  0.72088322     0.08900
F721        F  0.81159540  0.15788966  0.86850930    -0.18600
F722        F  0.80552452  0.10592239  0.81836943    -0.14800
F723        F  0.74566526  0.10241576  0.86441554    -0.18300
F724        F  0.60673325  0.25498555  0.74643299    -0.21700
F725        F  0.66945839  0.31241689  0.73550321    -0.23100
F726        F  0.62083308  0.31814407  0.78819478    -0.17100
F727        F  0.60454800  0.11327718  0.67164911    -0.19600
F728        F  0.66525930  0.09347869  0.62870363    -0.20800
F729        F  0.60962602  0.15904416  0.61738576    -0.18000
F730        F  0.82264092  0.28946488  0.69163597    -0.18000
F731        F  0.82121182  0.23249212  0.73992553    -0.21900
F732        F  0.77072170  0.30320927  0.74168091    -0.23500
C733        C  0.68176403  0.22027882  0.28105422    -0.10300
C734        C  0.72483954  0.19823901  0.26327209     0.12300
C735        C  0.76577492  0.17863304  0.28571670    -0.02100
C736        C  0.76083779  0.17959366  0.32575112    -0.04800
C737        C  0.71739584  0.20134087  0.34393007    -0.15600
C738        C  0.67719592  0.22274616  0.32102883     0.03300
C739        C  0.72748481  0.20128303  0.22098058     0.13300
C740        C  0.81502607  0.15836789  0.26748224     0.63900
H741        H  0.79155224  0.16387785  0.34322543     0.13300
C742        C  0.63037863  0.24978989  0.33802606     0.56000
H743        H  0.65181364  0.23636986  0.26298145     0.09100
C744        C  0.70164624  0.16609547  0.19719139    -0.04700
C745        C  0.70269496  0.17440639  0.15732945    -0.05500
C746        C  0.72793991  0.21695767  0.14108761    -0.15000
C747        C  0.75187240  0.25304997  0.16516930    -0.00600
C748        C  0.75175344  0.24417963  0.20478825    -0.08200
C749        C  0.67286340  0.12043108  0.21393210     0.66100
H750        H  0.68370573  0.14780876  0.13849532     0.11500
C751        C  0.77378694  0.30269348  0.14932172     0.64500
H752        H  0.76930899  0.27162489  0.22376339     0.08900
F753        F  0.60026055  0.27329020  0.31025328    -0.18600
F754        F  0.64594596  0.28762164  0.36294555    -0.14800
F755        F  0.59994405  0.21449513  0.35713450    -0.18300
F756        F  0.83902310  0.19761274  0.24757142    -0.21700
F757        F  0.80403769  0.11903778  0.24256854    -0.23100
F758        F  0.84930664  0.13950193  0.29445329    -0.17100
F759        F  0.73517916  0.32949124  0.13047344    -0.19600
F760        F  0.81370302  0.29224433  0.12430125    -0.20800
F761        F  0.79256493  0.33388576  0.17782923    -0.18000
F762        F  0.65118677  0.09055483  0.18578869    -0.18000
F763        F  0.63372850  0.13746885  0.23763513    -0.21900
F764        F  0.70615795  0.08956774  0.23481680    -0.23500
C765        C  0.50508813  0.52676180  0.77774615    -0.10300
C766        C  0.97218351  0.49111880  0.76081170     0.12300
C767        C  0.94517544  0.45563688  0.78412389    -0.02100
C768        C  0.94924881  0.45961327  0.82407202    -0.04800
C769        C  0.98236548  0.49508537  0.84129906    -0.15600
C770        C  0.51181918  0.52860410  0.81766858     0.03300
C771        C  0.97232829  0.48733380  0.71846785     0.13300
C772        C  0.91437632  0.41214103  0.76684517     0.63900
H773        H  0.92800642  0.43338914  0.84230539     0.13300
C774        C  0.55053356  0.06575651  0.83409085     0.56000
H775        H  0.52706838  0.05187956  0.75911108     0.09100
C776        C  0.93724627  0.01449348  0.69492334    -0.04700
C777        C  0.93838008  0.00575156  0.65524159    -0.05500
C778        C  0.97602175  0.47413140  0.63833172    -0.15000
C779        C  0.01421731  0.45064505  0.66194105    -0.00600
C780        C  0.01061906  0.45667962  0.70173278    -0.08200
C781        C  0.90058822  0.05445992  0.71140710     0.66100
H782        H  0.91082013  0.02517230  0.63689464     0.11500
C783        C  0.55871458  0.41928221  0.64576748     0.64500
H784        H  0.03833519  0.43800530  0.72040736     0.08900
F785        F  0.52706539  0.09638427  0.86124831    -0.18600
F786        F  0.57120121  0.59774075  0.80625120    -0.14800
F787        F  0.59069997  0.03846571  0.85062858    -0.18300
F788        F  0.94665121  0.38094407  0.74552034    -0.21700
F789        F  0.87614412  0.43169139  0.74343383    -0.23100
F790        F  0.89131014  0.38180628  0.79461369    -0.17100
F791        F  0.59125134  0.45106506  0.62522053    -0.19600
F792        F  0.54022323  0.38141151  0.62228972    -0.20800
F793        F  0.08747445  0.39548372  0.67418613    -0.18000
F794        F  0.86999905  0.07696419  0.68347019    -0.18000
F795        F  0.92865311  0.09291046  0.72846104    -0.21900
F796        F  0.86867603  0.03232802  0.73842200    -0.23500
C797        C  0.49441291  0.52174740  0.20299949    -0.10300
C798        C  0.97060551  0.47897602  0.21973318     0.12300
C799        C  0.94670587  0.44211355  0.19646205    -0.02100
C800        C  0.95102910  0.44732657  0.15659048    -0.04800
C801        C  0.97610946  0.48945426  0.13939236    -0.15600
C802        C  0.49712646  0.52828819  0.16308348     0.03300
C803        C  0.97051117  0.47452002  0.26194396     0.13300
C804        C  0.91542881  0.39850103  0.21372825     0.63900
H805        H  0.93361286  0.41887084  0.13840094     0.13300
C806        C  0.52290411  0.07598849  0.14687839     0.56000
H807        H  0.51094137  0.55006310  0.22175784     0.09100
C808        C  0.01152777  0.45061325  0.28207302    -0.04700
C809        C  0.00852157  0.44733653  0.32216672    -0.05500
C810        C  0.96709801  0.46917601  0.34233976    -0.15000
C811        C  0.92655218  0.99413317  0.32208949    -0.00600
C812        C  0.92893584  0.99613735  0.28199875    -0.08200
C813        C  0.55874043  0.43004169  0.26125049     0.66100
H814        H  0.53926546  0.42899233  0.33821821     0.11500
C815        C  0.88043914  0.01747130  0.34258797     0.64500
H816        H  0.89858244  0.01499721  0.26585557     0.08900
F817        F  0.54396032  0.60603900  0.17533601    -0.18600
F818        F  0.48731447  0.10605699  0.12745029    -0.14800
F819        F  0.56227834  0.06185837  0.12240478    -0.18300
F820        F  0.87385960  0.41870419  0.23348867    -0.21700
F821        F  0.94522064  0.36951568  0.23860256    -0.23100
F822        F  0.89682872  0.36592815  0.18602518    -0.17100
F823        F  0.84303761  0.03451311  0.31732259    -0.19600
F824        F  0.89561654  0.05897016  0.36413186    -0.20800
F825        F  0.85844218  0.98097448  0.36620490    -0.18000
F826        F  0.59405436  0.40811419  0.28617245    -0.18000
F827        F  0.58272965  0.46982904  0.24191340    -0.21900
F828        F  0.04468453  0.39297842  0.23531103    -0.23500
N829        N  0.96051912  0.72172234  0.96755660    -0.01900
C830        C  0.97316951  0.67620926  0.95036113     0.00700
C831        C  0.94742541  0.67052122  0.91634217    -0.22200
C832        C  0.91088151  0.70819005  0.91568275    -0.22400
C833        C  0.91489403  0.73360750  0.94992398     0.00600
H834        H  0.94706426  0.63654857  0.89865827     0.14400
H835        H  0.87761271  0.70853799  0.89705663     0.14400
N836        N  0.94642086  0.69177887  0.51633401    -0.01900
C837        C  0.95903981  0.64530671  0.53254118     0.00700
C838        C  0.93251374  0.63707969  0.56616937    -0.22200
C839        C  0.89547193  0.67425402  0.56752249    -0.22400
C840        C  0.90077816  0.70277557  0.53428886     0.00600
H841        H  0.93207093  0.60177599  0.58287860     0.14400
H842        H  0.86133056  0.67209628  0.58531734     0.14400
N843        N  0.75468776  0.96096409  0.01496469    -0.01900
C844        C  0.74533423  0.91375491  0.03132279     0.00700
C845        C  0.77760881  0.90391835  0.06170391    -0.22200
C846        C  0.81286662  0.94192239  0.06166703    -0.22400
C847        C  0.80128179  0.97300601  0.03075819     0.00600
H848        H  0.78219237  0.86763384  0.07664808     0.14400
H849        H  0.84906390  0.94029401  0.07692235     0.14400
N850        N  0.74050210  0.93232328  0.46730033    -0.01900
C851        C  0.72940678  0.88572167  0.45126583     0.00700
C852        C  0.76140933  0.87485078  0.42085687    -0.22200
C853        C  0.79911699  0.91038938  0.42161970    -0.22400
C854        C  0.78788404  0.94243872  0.45173463     0.00600
H855        H  0.76393657  0.83876338  0.40563381     0.14400
H856        H  0.83585379  0.90633494  0.40724967     0.14400
O857        O  0.86051160  0.97028582  0.97954137    -0.76900
C858        C  0.98413662  0.99536365  0.88383476     0.84100
O859        O  0.49730262  0.86420076  0.00092488    -0.78000
O860        O  0.60921323  0.50577821  0.98325491    -0.79500
O861        O  0.96036939  0.61487410  0.99926783    -0.79300
O862        O  0.87466280  0.02401137  0.02792492    -0.77900
Zn863      Zn  0.93209085  0.96276429  0.95618543     1.55700
O864        O  0.02057451  0.59929681  0.95470047    -0.79300
Cd865      Cd  0.95135010  0.54242810  0.02322484     1.59700
Cd866      Cd  0.50987492  0.93652316  0.02395961     1.59600
O867        O  0.97783177  0.03311322  0.07866017    -0.79300
O868        O  0.98241958  0.99044377  0.98960644    -1.89800
Cd869      Cd  0.53716736  0.52124614  0.95797154     1.59900
O870        O  0.48194426  0.94750894  0.07906673    -0.79300
O871        O  0.02722658  0.49866755  0.90128151    -0.77900
C872        C  0.97497584  0.85411967  0.96950018     0.84600
C873        C  0.84584552  0.99314685  0.00989821     0.84300
O874        O  0.94178352  0.99037892  0.90225878    -0.76900
C875        C  0.98778073  0.62895309  0.97078969     0.85100
O876        O  0.94896295  0.88776148  0.95104638    -0.77000
C877        C  0.97923188  0.99033020  0.09684802     0.85200
C878        C  0.62048595  0.97775653  0.01233883     0.85500
O879        O  0.58772587  0.94886179  0.02892159    -0.79400
O880        O  0.93623502  0.85912903  0.53075944    -0.76900
C881        C  0.97484780  0.96801935  0.59603305     0.84100
O882        O  0.86084137  0.99422396  0.45318748    -0.78000
O883        O  0.00762142  0.56985281  0.52562308    -0.79500
O884        O  0.57607925  0.92102032  0.45148194    -0.79300
O885        O  0.48366941  0.83502480  0.48042293    -0.77900
Zn886      Zn  0.91941411  0.93442031  0.52564064     1.55700
O887        O  0.59544850  0.47886556  0.49629200    -0.79300
Cd888      Cd  0.49764748  0.90804016  0.45648371     1.59700
Cd889      Cd  0.93695707  0.51430416  0.45837551     1.59600
O890        O  0.47156926  0.92188728  0.40091342    -0.79300
O891        O  0.96909235  0.96132122  0.49070608    -1.89800
Cd892      Cd  0.52388523  0.49229775  0.52119216     1.59900
O893        O  0.96492863  0.00766145  0.40341322    -0.79300
O894        O  0.01690060  0.46822836  0.57725674    -0.77900
C895        C  0.83224723  0.96346584  0.47201637     0.84600
C896        C  0.96136618  0.82502784  0.51227095     0.84300
O897        O  0.93139584  0.96399182  0.57907397    -0.76900
C898        C  0.60786203  0.95090947  0.46770305     0.85100
O899        O  0.84705215  0.94162046  0.50298296    -0.77000
C900        C  0.96766549  0.96595456  0.38446351     0.85200
C901        C  0.97347540  0.59940829  0.51099938     0.85500
O902        O  0.94477035  0.58580250  0.48340874    -0.79400
N903        N  0.49952675  0.76083989  0.96744914    -0.01900
C904        C  0.98860535  0.80663510  0.94944712     0.00700
C905        C  0.51839140  0.81313809  0.91702785    -0.22200
C906        C  0.55573459  0.77633874  0.91882816    -0.22400
C907        C  0.54639905  0.74870370  0.95186424     0.00600
H908        H  0.52064668  0.84762984  0.89949747     0.14400
H909        H  0.59141204  0.77709024  0.90272308     0.14400
N910        N  0.98538526  0.73092635  0.51599977    -0.01900
C911        C  0.97373203  0.77693940  0.53293846     0.00700
C912        C  0.50136257  0.78299932  0.56609816    -0.22200
C913        C  0.53895775  0.74641145  0.56569489    -0.22400
C914        C  0.53143493  0.71874944  0.53283193     0.00600
H915        H  0.50202046  0.81709747  0.58341672     0.14400
H916        H  0.57369836  0.74737097  0.58264499     0.14400
N917        N  0.71444728  0.49943374  0.01565461    -0.01900
C918        C  0.72538189  0.54464216  0.03357459     0.00700
C919        C  0.69912895  0.54881223  0.06769478    -0.22200
C920        C  0.66343226  0.51087091  0.06754522    -0.22400
C921        C  0.66894230  0.98640443  0.03289439     0.00600
H922        H  0.69748014  0.58230773  0.08584112     0.14400
H923        H  0.62959506  0.51035027  0.08560882     0.14400
N924        N  0.70166840  0.47226560  0.46628869    -0.01900
C925        C  0.71461743  0.51828113  0.44967868     0.00700
C926        C  0.68943637  0.52537579  0.41535510    -0.22200
C927        C  0.65232045  0.48882610  0.41423474    -0.22400
C928        C  0.65661208  0.96126166  0.44785784     0.00600
H929        H  0.68921441  0.56014644  0.39805600     0.14400
H930        H  0.61875325  0.49088977  0.39599464     0.14400
O931        O  0.72040895  0.68136517  0.90784903    -0.76900
C932        C  0.73647500  0.59303967  0.01356346     0.84100
O933        O  0.60448817  0.75653846  0.00310972    -0.78000
O934        O  0.77126135  0.72125747  0.08115447    -0.79500
O935        O  0.83181963  0.76901087  0.95175802    -0.79300
O936        O  0.72563265  0.76655752  0.90128030    -0.77900
Zn937      Zn  0.69555883  0.67847374  0.96246095     1.55700
O938        O  0.85524181  0.71728185  0.00034556    -0.79300
Cd939      Cd  0.75360856  0.78234571  0.95625926     1.59700
Cd940      Cd  0.67722033  0.76108763  0.02718701     1.59600
O941        O  0.74262169  0.85646033  0.97881305    -0.79300
O942        O  0.72771635  0.72977357  0.99226893    -1.89800
Cd943      Cd  0.78306201  0.70026348  0.02436542     1.59900
O944        O  0.69929433  0.83683296  0.03233428    -0.79300
O945        O  0.77140112  0.62158061  0.02734187    -0.77900
C946        C  0.59139952  0.73138940  0.97357820     0.84600
C947        C  0.72228677  0.72156012  0.88668918     0.84300
O948        O  0.70505974  0.60890673  0.98799222    -0.76900
C949        C  0.86571235  0.74278241  0.96988689     0.85100
O950        O  0.62127911  0.69893710  0.95756441    -0.77000
C951        C  0.72503015  0.86831791  0.01179963     0.85200
C952        C  0.72823824  0.72289861  0.09906230     0.85500
O953        O  0.68546346  0.72894175  0.08155464    -0.79400
O954        O  0.71601654  0.74335778  0.58054565    -0.76900
C955        C  0.85252658  0.71365541  0.51402553     0.84100
O956        O  0.68179748  0.81016775  0.45331772    -0.78000
O957        O  0.75994124  0.70135129  0.40451004    -0.79500
O958        O  0.69634612  0.57799693  0.49906629    -0.79300
O959        O  0.70899090  0.65773952  0.58070913    -0.77900
Zn960      Zn  0.74292492  0.75490360  0.52653442     1.55700
O961        O  0.75691967  0.59698700  0.45554076    -0.79300
Cd962      Cd  0.68418358  0.64976897  0.52479228     1.59700
Cd963      Cd  0.66416966  0.73361726  0.45906907     1.59600
O964        O  0.60696841  0.66907881  0.52937929    -0.79300
O965        O  0.71610418  0.70382696  0.49339331    -1.89800
Cd966      Cd  0.77029356  0.67495568  0.46017411     1.58300
O967        O  0.59140145  0.72634516  0.48260870    -0.79300
O968        O  0.84238507  0.68875543  0.48370002    -0.77900
C969        C  0.71058928  0.84033621  0.47198012     0.84600
C970        C  0.71149922  0.70043792  0.59849773     0.84300
O971        O  0.81864617  0.74037517  0.53148228    -0.76900
C972        C  0.72534973  0.56561989  0.47089272     0.85100
O973        O  0.73272355  0.82670169  0.50306277    -0.77000
C974        C  0.57753111  0.70135309  0.51235314     0.85200
C975        C  0.71705973  0.70254936  0.38662444     0.85500
O976        O  0.67437517  0.70411890  0.40477276    -0.79400
C977        C  0.74104769  0.67529873  0.78396126    -0.10300
C978        C  0.71094654  0.71122353  0.76388035     0.12300
C979        C  0.68209120  0.74856433  0.78412654    -0.02100
C980        C  0.68784244  0.75131527  0.82408811    -0.04800
C981        C  0.71894600  0.71600741  0.84440921    -0.15600
C982        C  0.74499448  0.67628428  0.82403056     0.03300
C983        C  0.71125614  0.70891916  0.72147624     0.13300
C984        C  0.64409674  0.78390847  0.76366104     0.63900
H985        H  0.66681851  0.78029967  0.83997821     0.13300
C986        C  0.77728640  0.63519381  0.84396678     0.56000
H987        H  0.76148085  0.64624729  0.76772707     0.09100
C988        C  0.74805610  0.73602398  0.69945200    -0.04700
C989        C  0.74596763  0.73282912  0.65940517    -0.05500
C990        C  0.71072570  0.70078969  0.64095506    -0.15000
C991        C  0.67586752  0.67109248  0.66326404    -0.00600
C992        C  0.67617940  0.67658772  0.70330876    -0.08200
C993        C  0.79063173  0.76640792  0.71831821     0.66100
H994        H  0.77314199  0.75422408  0.64208179     0.11500
C995        C  0.63842757  0.63394708  0.64516231     0.64500
H996        H  0.64961319  0.65494541  0.72097007     0.08900
F997        F  0.81176382  0.65779350  0.86837799    -0.18600
F998        F  0.80527555  0.60577221  0.81829502    -0.14800
F999        F  0.74563488  0.60252246  0.86449434    -0.18300
F1000       F  0.60641231  0.75464531  0.74673828    -0.21700
F1001       F  0.66877318  0.81244258  0.73573224    -0.23100
F1002       F  0.62029390  0.81782924  0.78851894    -0.17100
F1003       F  0.60463026  0.61333252  0.67172901    -0.19600
F1004       F  0.66538996  0.59359310  0.62880452    -0.20800
F1005       F  0.60967780  0.65908318  0.61745937    -0.18000
F1006       F  0.82207946  0.79033078  0.69170377    -0.18000
F1007       F  0.82088467  0.73349631  0.74008764    -0.21900
F1008       F  0.76999446  0.80393310  0.74167280    -0.23500
C1009       C  0.68187859  0.72026461  0.28112541    -0.10300
C1010       C  0.72495157  0.69820014  0.26335469     0.12300
C1011       C  0.76587756  0.67859762  0.28581014    -0.02100
C1012       C  0.76092515  0.67956730  0.32584481    -0.04800
C1013       C  0.71747879  0.70132660  0.34401216    -0.15600
C1014       C  0.67730099  0.72274990  0.32109944     0.03300
C1015       C  0.72760523  0.70122442  0.22106180     0.13300
C1016       C  0.81513019  0.65831623  0.26758604     0.63900
H1017       H  0.79162445  0.66384340  0.34332714     0.13300
C1018       C  0.63050559  0.74984687  0.33808389     0.56000
H1019       H  0.65194579  0.73635839  0.26304791     0.09100
C1020       C  0.70176668  0.66602813  0.19727972    -0.04700
C1021       C  0.70278537  0.67434357  0.15741687    -0.05500
C1022       C  0.72800735  0.71690362  0.14116667    -0.15000
C1023       C  0.75196442  0.75298876  0.16524161    -0.00600
C1024       C  0.75186439  0.74411928  0.20486033    -0.08200
C1025       C  0.67301543  0.62035090  0.21403141     0.66100
H1026       H  0.68379068  0.64774041  0.13858791     0.11500
C1027       C  0.77387278  0.80263119  0.14938848     0.64500
H1028       H  0.76942748  0.77157510  0.22383443     0.08900
F1029       F  0.60041237  0.77335679  0.31030075    -0.18600
F1030       F  0.64610851  0.78767931  0.36299053    -0.14800
F1031       F  0.60003343  0.71459619  0.35720361    -0.18300
F1032       F  0.83909920  0.69752596  0.24761762    -0.21700
F1033       F  0.80414784  0.61892360  0.24272570    -0.23100
F1034       F  0.84943502  0.63953026  0.29456956    -0.17100
F1035       F  0.73524152  0.82944649  0.13058192    -0.19600
F1036       F  0.81374839  0.79218673  0.12433106    -0.20800
F1037       F  0.79270400  0.83380345  0.17788798    -0.18000
F1038       F  0.65132163  0.59047281  0.18589689    -0.18000
F1039       F  0.63389935  0.63736998  0.23775863    -0.21900
F1040       F  0.70633995  0.58949393  0.23489444    -0.23500
C1041       C  0.50520212  0.02666517  0.77771867    -0.10300
C1042       C  0.97237270  0.99099856  0.76078101     0.12300
C1043       C  0.94533034  0.95552330  0.78407689    -0.02100
C1044       C  0.94936923  0.95949380  0.82402830    -0.04800
C1045       C  0.98243789  0.99499488  0.84127312    -0.15600
C1046       C  0.51186943  0.02853454  0.81764489     0.03300
C1047       C  0.97251530  0.98725368  0.71843547     0.13300
C1048       C  0.91447299  0.91208239  0.76677731     0.63900
H1049       H  0.92810791  0.93327769  0.84224868     0.13300
C1050       C  0.55057618  0.56574796  0.83409024     0.56000
H1051       H  0.52695159  0.55196434  0.75912765     0.09100
C1052       C  0.93706400  0.51454457  0.69493086    -0.04700
C1053       C  0.93822999  0.50577158  0.65525341    -0.05500
C1054       C  0.97616310  0.97412776  0.63829206    -0.15000
C1055       C  0.01438127  0.95063012  0.66187638    -0.00600
C1056       C  0.01080068  0.95661598  0.70167476    -0.08200
C1057       C  0.90035945  0.55449103  0.71138448     0.66100
H1058       H  0.91067325  0.52517602  0.63688383     0.11500
C1059       C  0.55888881  0.91936775  0.64566674     0.64500
H1060       H  0.03852337  0.93793207  0.72032716     0.08900
F1061       F  0.52721757  0.59638599  0.86129266    -0.18600
F1062       F  0.57116432  0.09775615  0.80625860    -0.14800
F1063       F  0.59073250  0.53837142  0.85056524    -0.18300
F1064       F  0.94666991  0.88093506  0.74534940    -0.21700
F1065       F  0.87617796  0.93171512  0.74345939    -0.23100
F1066       F  0.89147868  0.88167449  0.79453463    -0.17100
F1067       F  0.59141540  0.95124392  0.62519092    -0.19600
F1068       F  0.54046015  0.88155444  0.62211184    -0.20800
F1069       F  0.08764970  0.89545899  0.67406208    -0.18000
F1070       F  0.86985155  0.57703216  0.68341355    -0.18000
F1071       F  0.92836892  0.59292212  0.72851175    -0.21900
F1072       F  0.86837020  0.53231859  0.73833042    -0.23500
C1073       C  0.49423017  0.02175916  0.20295021    -0.10300
C1074       C  0.97044244  0.97895956  0.21970063     0.12300
C1075       C  0.94660362  0.94206936  0.19641939    -0.02100
C1076       C  0.95098905  0.94725914  0.15655035    -0.04800
C1077       C  0.97606271  0.98939402  0.13935915    -0.15600
C1078       C  0.49699673  0.02825992  0.16303148     0.03300
C1079       C  0.97035284  0.97447989  0.26191201     0.13300
C1080       C  0.91530801  0.89846237  0.21367069     0.63900
H1081       H  0.93361149  0.91878093  0.13835341     0.13300
C1082       C  0.52305113  0.57600954  0.14693557     0.56000
H1083       H  0.51071775  0.05009402  0.22170208     0.09100
C1084       C  0.01136948  0.95054223  0.28202117    -0.04700
C1085       C  0.00836996  0.94720762  0.32211300    -0.05500
C1086       C  0.96696411  0.96904204  0.34230800    -0.15000
C1087       C  0.92667789  0.49421648  0.32209831    -0.00600
C1088       C  0.92908251  0.49618760  0.28200975    -0.08200
C1089       C  0.55858315  0.93006124  0.26115513     0.66100
H1090       H  0.53913227  0.92887741  0.33812745     0.11500
C1091       C  0.88052991  0.51752771  0.34256783     0.64500
H1092       H  0.89872962  0.51502462  0.26584948     0.08900
F1093       F  0.54379178  0.10603731  0.17527555    -0.18600
F1094       F  0.48747179  0.60610299  0.12751849    -0.14800
F1095       F  0.56241151  0.56186678  0.12245345    -0.18300
F1096       F  0.87367326  0.91867537  0.23335025    -0.21700
F1097       F  0.94504317  0.86952642  0.23861345    -0.23100
F1098       F  0.89680801  0.86583983  0.18596290    -0.17100
F1099       F  0.84310510  0.53445994  0.31728148    -0.19600
F1100       F  0.89564727  0.55909091  0.36406700    -0.20800
F1101       F  0.85858356  0.48104655  0.36622267    -0.18000
F1102       F  0.59391786  0.90811411  0.28605088    -0.18000
F1103       F  0.58254729  0.96988600  0.24184281    -0.21900
F1104       F  0.04453178  0.89297798  0.23521255    -0.23500
loop_ 
_geom_bond_atom_site_label_1 
_geom_bond_atom_site_label_2 
_geom_bond_distance 
_geom_bond_site_symmetry_2 
_ccdc_geom_bond_type 
N1            C5   1.370       .  A
N1            C2   1.369       .  A
N1          N627   1.442       .  S
C2            C3   1.378       .  A
C2           C47   1.464       .  S
C3            C4   1.358       .  A
C3            H6   1.083       .  S
C4            C5   1.379       .  A
C4            H7   1.082       .  S
C5          C121   1.473       .  S
N8           C12   1.369       .  A
N8            C9   1.368       .  A
N8           N82   1.441       .  S
C9           C10   1.378       .  A
C9           C73   1.462       .  S
C10          C11   1.358       .  A
C10          H13   1.084       .  S
C11          C12   1.382       .  A
C11          H14   1.084       .  S
C12         C127   1.467       .  S
N15          C19   1.372       .  A
N15          C16   1.372       .  A
N15         N365   1.442       .  S
C16          C17   1.378       .  A
C16         C123   1.472       .  S
C17          C18   1.353       .  A
C17          H20   1.080       .  S
C18          C19   1.378       .  A
C18          H21   1.083       .  S
C19          C45   1.465       .  S
N22          C26   1.371       .  A
N22          C23   1.372       .  A
N22         N372   1.441       .  S
C23          C24   1.378       .  A
C23         C141   1.466       .  S
C24          C25   1.352       .  A
C24          H27   1.084       .  S
C25          C26   1.378       .  A
C25          H28   1.082       .  S
C26          C67   1.468       .  S
O29          C45   1.277   1_556  A
O29         Zn35   2.037       .  S
C30         C217   1.492       .  S
C30          O46   1.281       .  A
C30         O319   1.281       .  A
O31         C596   1.276   1_554  A
O31         Cd38   2.080   1_655  S
O32         C326   1.282   1_546  A
O32         Cd41   2.107       .  S
O33          C47   1.276       .  A
O33         Cd37   2.069   1_556  S
O34          C45   1.274       .  A
O34        Cd313   2.058       .  S
Zn35         O46   2.030       .  S
Zn35         O48   2.003       .  S
Zn35         O40   1.907       .  S
O36          C47   1.277       .  A
O36        Cd593   2.072       .  S
Cd37        O310   2.058       .  S
Cd37        O315   2.074       .  S
Cd37        O316   1.965   1_544  S
Cd38         O42   2.080   1_455  S
Cd38         O51   2.059       .  S
Cd38        O592   1.970   1_454  S
O39          C49   1.277       .  A
O39        Cd313   2.074       .  S
O40        Cd313   1.965   1_556  S
O40        Cd590   1.970   1_556  S
O40        Cd869   1.970       .  S
Cd41        O588   2.072       .  S
Cd41        O595   2.092   1_545  S
Cd41        O868   1.970   1_445  S
O42         C601   1.280       .  A
O43         C306   1.281       .  A
O43        Cd593   2.092   1_565  S
C44          C76   1.465       .  S
C44          O48   1.273       .  A
C44         O583   1.276   1_556  A
C49         C249   1.491       .  S
C49         O594   1.280       .  A
C50          C93   1.472       .  S
C50          O51   1.275       .  A
C50         O308   1.282   1_554  A
O52          C68   1.276       .  A
O52         Zn58   2.007       .  S
C53         C226   1.490       .  S
C53          O69   1.283       .  A
C53         O342   1.276       .  A
O54          C67   1.274       .  A
O54        Cd337   2.057       .  S
O55          C73   1.274       .  A
O55        Cd616   2.062   1_545  S
O56          C70   1.276       .  A
O56         Cd60   2.075   1_455  S
O57         C620   1.280       .  A
O57         Cd60   2.101       .  S
Zn58         O69   2.054       .  S
Zn58         O71   2.049       .  S
Zn58         O63   1.908       .  S
O59         C346   1.277       .  A
O59         Cd64   2.079       .  S
Cd60         O62   2.090       .  S
Cd60        O615   1.976       .  S
Cd61         O74   2.073       .  S
Cd61        O330   2.057   1_545  S
Cd61        O341   2.062       .  S
Cd61        O339   1.958   1_545  S
O62         C624   1.281       .  A
O63        Cd612   1.976       .  S
O63        Cd337   1.958       .  S
O63        Cd892   1.963       .  S
Cd64        O607   2.062   1_565  S
Cd64        O618   2.063       .  S
Cd64        O891   1.963   1_455  S
O65          C72   1.277       .  A
O65        Cd337   2.062       .  S
O66         C329   1.276       .  A
O66        Cd616   2.063       .  S
C67          O71   1.279       .  A
C68          C83   1.472       .  S
C68         O609   1.280       .  A
C70         C100   1.468       .  S
C70         O335   1.277       .  A
C72         C258   1.478       .  S
C72         O614   1.281       .  A
C73          O74   1.277       .  A
N75          C79   1.368   1_655  A
N75         C628   1.370       .  A
N75         N553   1.442       .  S
C76         N627   1.370       .  A
C76         C629   1.381       .  A
C77          C78   1.357       .  A
C77         C628   1.381   1_455  A
C77          H80   1.084       .  S
C78          C79   1.378       .  A
C78          H81   1.084       .  S
C79         C118   1.462       .  S
N82          C83   1.370       .  A
N82         C638   1.369       .  A
C83         C636   1.379       .  A
C84          C85   1.357       .  A
C84         C635   1.379   1_455  A
C84          H87   1.078       .  S
C85          C86   1.377       .  A
C85          H88   1.083       .  S
C86         N634   1.369   1_455  A
C86         C146   1.464       .  S
N89          C90   1.369   1_565  A
N89         C369   1.369       .  A
N89         N291   1.442       .  S
C90          C91   1.378       .  A
C90         C104   1.464       .  S
C91          C92   1.359       .  A
C91          H94   1.082       .  S
C92         C369   1.381   1_545  A
C92          H95   1.081       .  S
C93         N365   1.369       .  A
C93         C368   1.381       .  A
N96          C97   1.369   1_565  A
N96         C376   1.370       .  A
N96         N298   1.441       .  S
C97          C98   1.381       .  A
C97         C144   1.471       .  S
C98          C99   1.360   1_545  A
C98         H101   1.084       .  S
C99         C376   1.380       .  A
C99         H102   1.084       .  S
C100        N372   1.370       .  A
C100        C375   1.380       .  A
O103        C119   1.277       .  A
O103       Zn109   2.017       .  S
C104        O120   1.277   1_554  A
C104        O117   1.275       .  A
O105        C118   1.277   1_554  A
O105       Cd112   2.076       .  S
O106        C124   1.280       .  A
O106       Cd115   2.088       .  S
O107        C121   1.276       .  A
O107       Cd111   2.064       .  S
O108        C119   1.283       .  A
O108       Cd111   2.105       .  S
Zn109       O120   2.023       .  S
Zn109       O122   2.005       .  S
Zn109       O114   1.901       .  S
O110        C121   1.281   1_554  A
O110       Cd115   2.101       .  S
Cd111       O113   2.104       .  S
Cd111       O114   1.972       .  S
Cd112       O116   2.064       .  S
Cd112       O125   2.083       .  S
Cd112       O114   1.966   1_554  S
O113        C123   1.280   1_556  A
O114       Cd115   1.974   1_556  S
Cd115       O117   2.071       .  S
O116        C123   1.276       .  A
C118        O122   1.273       .  A
C119        C153   1.492       .  S
C124        C194   1.481       .  S
C124        O125   1.279       .  A
O126        C142   1.282       .  A
O126       Zn132   2.035       .  S
C127        O143   1.274       .  A
C127        O140   1.278       .  A
O128        C141   1.274       .  A
O128       Cd135   2.053       .  S
O129        C147   1.280       .  A
O129       Cd138   2.079       .  S
O130        C144   1.281       .  A
O130       Cd134   2.099       .  S
O131        C142   1.279       .  A
O131       Cd134   2.076       .  S
Zn132       O143   2.008       .  S
Zn132       O145   2.048       .  S
Zn132       O137   1.908       .  S
O133        C144   1.275       .  A
O133       Cd138   2.066       .  S
Cd134       O136   2.070       .  S
Cd134       O137   1.964       .  S
Cd135       O139   2.069       .  S
Cd135       O148   2.071       .  S
Cd135       O137   1.960       .  S
O136        C146   1.276       .  A
O137       Cd138   1.971       .  S
Cd138       O140   2.084       .  S
O139        C146   1.275       .  A
C141        O145   1.279       .  A
C142        C162   1.487       .  S
C147        C185   1.493       .  S
C147        O148   1.277       .  A
C149        C150   1.399       .  A
C149        C154   1.408       .  A
C149        H159   1.083       .  S
C150        C151   1.415       .  A
C150        C155   1.487       .  S
C151        C152   1.410       .  A
C151        C156   1.520       .  S
C152        C153   1.408       .  A
C152        H157   1.083       .  S
C153        C154   1.424       .  A
C154        C158   1.519       .  S
C155        C160   1.415       .  A
C155        C164   1.403       .  A
C156        F172   1.383       .  S
C156        F173   1.382       .  S
C156        F174   1.384       .  S
C158        F169   1.379       .  S
C158        F170   1.385       .  S
C158        F171   1.382       .  S
C160        C161   1.407       .  A
C160        C165   1.521       .  S
C161        C162   1.405       .  A
C161        H166   1.083       .  S
C162        C163   1.422       .  A
C163        C164   1.411       .  A
C163        C167   1.520       .  S
C164        H168   1.083       .  S
C165        F178   1.384       .  S
C165        F179   1.383       .  S
C165        F180   1.381       .  S
C167        F175   1.385       .  S
C167        F176   1.383       .  S
C167        F177   1.383       .  S
C181        C182   1.399       .  A
C181        C186   1.407       .  A
C181        H191   1.084       .  S
C182        C183   1.414       .  A
C182        C187   1.484       .  S
C183        C184   1.408       .  A
C183        C188   1.520       .  S
C184        C185   1.410       .  A
C184        H189   1.083       .  S
C185        C186   1.425       .  A
C186        C190   1.521       .  S
C187        C192   1.417       .  A
C187        C196   1.400       .  A
C188        F204   1.382       .  S
C188        F205   1.382       .  S
C188        F206   1.384       .  S
C190        F201   1.385       .  S
C190        F202   1.384       .  S
C190        F203   1.383       .  S
C192        C193   1.411       .  A
C192        C197   1.520       .  S
C193        C194   1.405       .  A
C193        H198   1.083       .  S
C194        C195   1.416       .  A
C195        C196   1.405       .  A
C195        C199   1.515       .  S
C196        H200   1.083       .  S
C197        F210   1.384       .  S
C197        F211   1.382       .  S
C197        F212   1.382       .  S
C199        F207   1.383       .  S
C199        F208   1.382       .  S
C199        F209   1.384       .  S
C213        C218   1.411       .  A
C213        C766   1.402   1_455  A
C213        H499   1.083       .  S
C214        C215   1.415       .  A
C214        C765   1.402       .  A
C214        C219   1.487       .  S
C215        C216   1.408       .  A
C215        C220   1.521       .  S
C216        C217   1.407       .  A
C216        H221   1.083       .  S
C217        C770   1.422       .  A
C218        C769   1.422   1_455  A
C218        C498   1.519       .  S
C219        C228   1.399       .  A
C219        C500   1.415       .  A
C220        F236   1.383       .  S
C220        F237   1.381       .  S
C220        F238   1.385       .  S
C222        C494   1.519       .  S
C222        F233   1.382       .  S
C222        F235   1.383       .  S
C222        F510   1.385       .  S
H223        C489   1.083       .  S
C224        C225   1.410       .  A
C224        C495   1.415   1_545  A
C224        C229   1.519       .  S
C225        C502   1.408   1_545  A
C225        H230   1.083       .  S
C226        C227   1.424       .  A
C226        C501   1.408       .  A
C227        C228   1.406       .  A
C227        C783   1.519       .  S
C228        H232   1.083       .  S
C229        F242   1.385       .  S
C229        F243   1.383       .  S
C229        F244   1.381       .  S
C231        C779   1.519       .  S
C231        F239   1.383       .  S
C231        F240   1.378       .  S
C231        F793   1.385       .  S
F234        C498   1.385       .  S
F241        C783   1.385       .  S
C245        C250   1.408       .  A
C245        C798   1.400       .  A
C245        H255   1.083   1_655  S
C246        C247   1.412       .  A
C246        C797   1.400       .  A
C246        C251   1.482       .  S
C247        C248   1.406       .  A
C247        C252   1.520       .  S
C248        C249   1.408       .  A
C248        H253   1.083       .  S
C249        C802   1.425       .  A
C250        C801   1.425       .  A
C250        C530   1.520   1_655  S
C251        C256   1.416       .  A
C251        C536   1.400       .  A
C252        F268   1.383       .  S
C252        F269   1.382       .  S
C252        F270   1.384       .  S
C254        C526   1.520   1_455  S
C254        F266   1.382   1_455  S
C254        F267   1.381       .  S
C254        F541   1.385       .  S
C256        C257   1.408       .  A
C256        C813   1.520       .  S
C257        C258   1.404       .  A
C257        H814   1.083       .  S
C258        C535   1.419       .  A
C259        C260   1.406       .  A
C259        C534   1.419       .  A
C259        C263   1.519   1_565  S
C260        C527   1.400       .  A
C260        H264   1.083   1_565  S
C261        C808   1.520       .  S
C261        F274   1.384       .  S
C261        F275   1.383       .  S
C261        F828   1.382       .  S
H262        C809   1.083       .  S
C263        F271   1.384       .  S
C263        F272   1.382       .  S
C263        F273   1.379   1_545  S
F265        C530   1.385       .  S
F276        C813   1.382       .  S
N277        C281   1.370       .  A
N277        C278   1.368       .  A
N277        N903   1.441       .  S
C278        C279   1.378       .  A
C278        C323   1.464       .  S
C279        C280   1.358       .  A
C279        H282   1.083       .  S
C280        C281   1.379       .  A
C280        H283   1.085       .  S
C281        C397   1.473       .  S
N284        C288   1.369       .  A
N284        C285   1.368       .  A
N284        N358   1.441       .  S
C285        C286   1.378       .  A
C285        C349   1.462       .  S
C286        C287   1.359       .  A
C286        H289   1.084       .  S
C287        C288   1.382       .  A
C287        H290   1.084       .  S
C288        C403   1.467       .  S
N291        C295   1.372       .  A
N291        C292   1.372       .  A
C292        C293   1.378       .  A
C292        C399   1.472       .  S
C293        C294   1.353       .  A
C293        H296   1.080       .  S
C294        C295   1.378       .  A
C294        H297   1.084       .  S
C295        C321   1.465       .  S
N298        C302   1.371       .  A
N298        C299   1.372       .  A
C299        C300   1.378       .  A
C299        C417   1.466       .  S
C300        C301   1.352       .  A
C300        H303   1.084       .  S
C301        C302   1.378       .  A
C301        H304   1.082       .  S
C302        C343   1.468       .  S
O305        C321   1.278   1_556  A
O305       Zn311   2.038       .  S
C306        C493   1.491       .  S
C306        O322   1.281       .  A
O307        C872   1.276   1_554  A
O307       Cd314   2.080   1_655  S
O308       Cd317   2.108       .  S
O309        C323   1.276       .  A
O309       Cd313   2.069   1_556  S
O310        C321   1.274   1_545  A
Zn311       O322   2.030       .  S
Zn311       O324   2.003       .  S
Zn311       O316   1.907       .  S
O312        C323   1.277       .  A
O312       Cd869   2.072       .  S
Cd314       O318   2.080   1_455  S
Cd314       O327   2.059       .  S
Cd314       O868   1.970   1_454  S
O315        C325   1.277   1_545  A
O316       Cd866   1.970   1_556  S
O316       Cd593   1.970   1_565  S
Cd317       O864   2.072       .  S
Cd317       O871   2.092       .  S
Cd317       O592   1.970   1_455  S
O318        C877   1.280       .  A
O319       Cd869   2.093       .  S
C320        C352   1.465       .  S
C320        O859   1.276   1_556  A
C320        O324   1.273       .  A
C325        C525   1.491       .  S
C325        O870   1.280       .  A
C326        C369   1.472       .  S
C326        O327   1.275       .  A
O328        C344   1.276       .  A
O328       Zn334   2.007       .  S
C329        C502   1.490       .  S
C329        O345   1.283       .  A
O330        C343   1.274       .  A
O331        C349   1.274       .  A
O331       Cd892   2.062       .  S
O332        C346   1.276       .  A
O332       Cd336   2.075   1_455  S
O333        C896   1.280       .  A
O333       Cd336   2.101       .  S
Zn334       O345   2.055       .  S
Zn334       O347   2.050       .  S
Zn334       O339   1.908       .  S
O335       Cd340   2.079       .  S
Cd336       O338   2.090       .  S
Cd336       O891   1.976       .  S
Cd337       O350   2.073       .  S
O338        C900   1.281       .  A
O339       Cd888   1.976       .  S
O339       Cd616   1.963       .  S
Cd340       O883   2.062       .  S
Cd340       O894   2.063       .  S
Cd340       O615   1.963   1_455  S
O341        C348   1.277   1_545  A
O342       Cd892   2.063       .  S
C343        O347   1.279       .  A
C344        C359   1.472       .  S
C344        O885   1.280       .  A
C346        C376   1.468       .  S
C348        C534   1.478       .  S
C348        O890   1.281       .  A
C349        O350   1.277       .  A
N351        C355   1.368   1_655  A
N351        C904   1.370       .  A
N351        N829   1.441       .  S
C352        N903   1.370       .  A
C352        C905   1.381       .  A
C353        C904   1.381   1_455  A
C353        C354   1.357       .  A
C353        H356   1.084       .  S
C354        C355   1.378       .  A
C354        H357   1.083       .  S
C355        C394   1.463       .  S
N358        C914   1.369       .  A
N358        C359   1.370       .  A
C359        C912   1.379       .  A
C360        C911   1.379   1_455  A
C360        C361   1.357       .  A
C360        H363   1.078       .  S
C361        C362   1.377       .  A
C361        H364   1.083       .  S
C362        N910   1.369   1_455  A
C362        C422   1.464       .  S
N365        C366   1.369       .  A
C366        C367   1.378       .  A
C366        C380   1.465       .  S
C367        C368   1.359       .  A
C367        H370   1.082       .  S
C368        H371   1.081       .  S
N372        C373   1.369       .  A
C373        C374   1.381       .  A
C373        C420   1.471       .  S
C374        C375   1.360       .  A
C374        H377   1.083       .  S
C375        H378   1.084       .  S
O379        C395   1.277       .  A
O379       Zn385   2.017       .  S
C380        O396   1.277   1_554  A
C380        O393   1.275       .  A
O381        C394   1.277   1_554  A
O381       Cd388   2.077       .  S
O382        C400   1.280       .  A
O382       Cd391   2.088       .  S
O383        C397   1.276       .  A
O383       Cd387   2.064       .  S
O384        C395   1.284       .  A
O384       Cd387   2.105       .  S
Zn385       O396   2.023       .  S
Zn385       O398   2.005       .  S
Zn385       O390   1.901       .  S
O386        C397   1.281   1_554  A
O386       Cd391   2.102       .  S
Cd387       O389   2.104       .  S
Cd387       O390   1.972       .  S
Cd388       O392   2.064       .  S
Cd388       O401   2.084       .  S
Cd388       O390   1.966   1_554  S
O389        C399   1.280   1_556  A
O390       Cd391   1.974   1_556  S
Cd391       O393   2.071       .  S
O392        C399   1.276       .  A
C394        O398   1.273       .  A
C395        C429   1.492       .  S
C400        C470   1.481       .  S
C400        O401   1.279       .  A
O402        C418   1.281       .  A
O402       Zn408   2.035       .  S
C403        O419   1.274       .  A
C403        O416   1.278       .  A
O404        C417   1.274       .  A
O404       Cd411   2.053       .  S
O405        C423   1.280       .  A
O405       Cd414   2.079       .  S
O406        C420   1.281       .  A
O406       Cd410   2.099       .  S
O407        C418   1.279       .  A
O407       Cd410   2.076       .  S
Zn408       O419   2.008       .  S
Zn408       O421   2.047       .  S
Zn408       O413   1.908       .  S
O409        C420   1.275       .  A
O409       Cd414   2.066       .  S
Cd410       O412   2.070       .  S
Cd410       O413   1.964       .  S
Cd411       O415   2.069       .  S
Cd411       O424   2.071       .  S
Cd411       O413   1.960       .  S
O412        C422   1.276       .  A
O413       Cd414   1.971       .  S
Cd414       O416   2.084       .  S
O415        C422   1.275       .  A
C417        O421   1.279       .  A
C418        C438   1.487       .  S
C423        C461   1.493       .  S
C423        O424   1.277       .  A
C425        C426   1.399       .  A
C425        C430   1.408       .  A
C425        H435   1.083       .  S
C426        C427   1.415       .  A
C426        C431   1.487       .  S
C427        C428   1.410       .  A
C427        C432   1.520       .  S
C428        C429   1.408       .  A
C428        H433   1.083       .  S
C429        C430   1.425       .  A
C430        C434   1.519       .  S
C431        C436   1.415       .  A
C431        C440   1.403       .  A
C432        F448   1.383       .  S
C432        F449   1.382       .  S
C432        F450   1.384       .  S
C434        F445   1.379       .  S
C434        F446   1.385       .  S
C434        F447   1.382       .  S
C436        C437   1.407       .  A
C436        C441   1.521       .  S
C437        C438   1.405       .  A
C437        H442   1.084       .  S
C438        C439   1.422       .  A
C439        C440   1.411       .  A
C439        C443   1.520       .  S
C440        H444   1.083       .  S
C441        F454   1.384       .  S
C441        F455   1.383       .  S
C441        F456   1.381       .  S
C443        F451   1.385       .  S
C443        F452   1.383       .  S
C443        F453   1.383       .  S
C457        C458   1.399       .  A
C457        C462   1.407       .  A
C457        H467   1.083       .  S
C458        C459   1.414       .  A
C458        C463   1.484       .  S
C459        C460   1.408       .  A
C459        C464   1.520       .  S
C460        C461   1.410       .  A
C460        H465   1.082       .  S
C461        C462   1.425       .  A
C462        C466   1.521       .  S
C463        C468   1.417       .  A
C463        C472   1.400       .  A
C464        F480   1.382       .  S
C464        F481   1.382       .  S
C464        F482   1.384       .  S
C466        F477   1.385       .  S
C466        F478   1.384       .  S
C466        F479   1.383       .  S
C468        C469   1.411       .  A
C468        C473   1.520       .  S
C469        C470   1.405       .  A
C469        H474   1.083       .  S
C470        C471   1.416       .  A
C471        C472   1.405       .  A
C471        C475   1.515       .  S
C472        H476   1.084       .  S
C473        F486   1.384       .  S
C473        F487   1.382       .  S
C473        F488   1.382       .  S
C475        F483   1.383       .  S
C475        F484   1.382       .  S
C475        F485   1.384       .  S
C489       C1042   1.402   1_445  A
C489        C494   1.411       .  A
C490       C1041   1.402   1_565  A
C490        C491   1.415       .  A
C490        C495   1.487       .  S
C491        C492   1.408       .  A
C491        C496   1.521       .  S
C492        C493   1.407       .  A
C492        H497   1.083       .  S
C493       C1046   1.422   1_565  A
C494       C1045   1.422   1_445  A
C495        C504   1.399       .  A
C496        F512   1.383       .  S
C496        F513   1.381       .  S
C496        F514   1.385       .  S
C498        F509   1.382       .  S
C498        F511   1.383       .  S
C500        C501   1.410       .  A
C500        C505   1.519       .  S
C501        H506   1.083       .  S
C502        C503   1.424       .  A
C503        C504   1.406       .  A
C503       C1059   1.519       .  S
C504        H508   1.083       .  S
C505        F518   1.385       .  S
C505        F519   1.383       .  S
C505        F520   1.381       .  S
C507       C1055   1.519       .  S
C507        F515   1.383       .  S
C507        F516   1.378       .  S
C507       F1069   1.385       .  S
F517       C1059   1.385       .  S
C521       C1074   1.400   1_545  A
C521        C526   1.408       .  A
C521        H531   1.083   1_655  S
C522       C1073   1.400   1_565  A
C522        C523   1.412       .  A
C522        C527   1.482       .  S
C523        C524   1.406       .  A
C523        C528   1.520       .  S
C524        C525   1.408       .  A
C524        H529   1.083       .  S
C525       C1078   1.425   1_565  A
C526       C1077   1.425   1_545  A
C527        C532   1.416       .  A
C528        F544   1.383       .  S
C528        F545   1.382       .  S
C528        F546   1.384       .  S
C530        F542   1.382   1_455  S
C530        F543   1.381       .  S
C532        C533   1.408       .  A
C532       C1089   1.520       .  S
C533        C534   1.404       .  A
C533       H1090   1.083       .  S
C535        C536   1.406       .  A
C535        C539   1.519       .  S
C536        H540   1.083       .  S
C537       C1084   1.520       .  S
C537        F550   1.384       .  S
C537        F551   1.383       .  S
C537       F1104   1.382       .  S
H538       C1085   1.083       .  S
C539        F547   1.384       .  S
C539        F548   1.382       .  S
C539        F549   1.379       .  S
F552       C1089   1.382       .  S
N553        C557   1.370       .  A
N553        C554   1.369       .  A
C554        C555   1.378       .  A
C554        C599   1.464       .  S
C555        C556   1.358       .  A
C555        H558   1.083       .  S
C556        C557   1.379       .  A
C556        H559   1.084       .  S
C557        C673   1.473       .  S
N560        C564   1.369       .  A
N560        C561   1.368       .  A
N560        N634   1.441       .  S
C561        C562   1.378       .  A
C561        C625   1.462       .  S
C562        C563   1.358       .  A
C562        H565   1.084       .  S
C563        C564   1.382       .  A
C563        H566   1.084       .  S
C564        C679   1.467       .  S
N567        C571   1.372       .  A
N567        C568   1.372       .  A
N567        N917   1.442       .  S
C568        C569   1.378       .  A
C568        C675   1.472       .  S
C569        C570   1.353       .  A
C569        H572   1.080       .  S
C570        C571   1.378       .  A
C570        H573   1.084       .  S
C571        C597   1.465       .  S
N574        C578   1.371       .  A
N574        C575   1.372       .  A
N574        N924   1.441       .  S
C575        C576   1.378       .  A
C575        C693   1.466       .  S
C576        C577   1.352       .  A
C576        H579   1.084       .  S
C577        C578   1.378       .  A
C577        H580   1.082       .  S
C578        C619   1.468       .  S
O581        C597   1.277   1_556  A
O581       Zn587   2.037       .  S
C582        C769   1.492       .  S
C582        O598   1.281       .  A
C582        O871   1.281   1_655  A
O583       Cd590   2.080       .  S
O584        C878   1.282   1_546  A
O584       Cd593   2.107       .  S
O585        C599   1.276       .  A
O585       Cd589   2.069   1_556  S
O586        C597   1.274       .  A
O586       Cd865   2.058       .  S
Zn587       O598   2.030       .  S
Zn587       O600   2.003       .  S
Zn587       O592   1.907       .  S
O588        C599   1.277   1_455  A
Cd589       O862   2.058       .  S
Cd589       O867   2.074       .  S
Cd589       O868   1.965   1_544  S
Cd590       O594   2.080       .  S
Cd590       O603   2.059       .  S
O591        C601   1.277       .  A
O591       Cd865   2.074       .  S
O592       Cd865   1.965   1_556  S
O595        C858   1.281   1_455  A
C596        C628   1.465       .  S
C596        O600   1.273       .  A
C601        C801   1.491       .  S
C602        C645   1.472       .  S
C602        O860   1.282   1_554  A
C602        O603   1.275       .  A
O604        C620   1.276       .  A
O604       Zn610   2.007       .  S
C605        C778   1.490       .  S
C605        O621   1.283       .  A
C605        O894   1.276   1_655  A
O606        C619   1.274       .  A
O606       Cd889   2.057       .  S
O607        C625   1.274   1_455  A
O608        C622   1.276       .  A
O608       Cd612   2.075       .  S
O609       Cd612   2.101       .  S
Zn610       O621   2.054       .  S
Zn610       O623   2.049       .  S
Zn610       O615   1.908       .  S
O611        C898   1.277       .  A
O611       Cd616   2.079       .  S
Cd612       O614   2.090       .  S
Cd613       O882   2.057   1_545  S
Cd613       O893   2.062       .  S
Cd613       O626   2.073       .  S
Cd613       O891   1.958   1_545  S
O615       Cd889   1.958       .  S
O617        C624   1.277       .  A
O617       Cd889   2.062       .  S
O618        C881   1.276   1_455  A
C619        O623   1.279       .  A
C620        C635   1.472       .  S
C622        C652   1.468       .  S
C622        O887   1.277       .  A
C624        C810   1.478       .  S
C625        O626   1.277       .  A
N627        C631   1.368       .  A
C629        C630   1.357       .  A
C629        H632   1.084       .  S
C630        C631   1.378       .  A
C630        H633   1.083       .  S
C631        C670   1.462       .  S
N634        C635   1.370       .  A
C636        C637   1.357       .  A
C636        H639   1.078       .  S
C637        C638   1.377       .  A
C637        H640   1.083       .  S
C638        C698   1.464       .  S
N641        C921   1.369       .  A
N641        C642   1.369   1_565  A
N641        N843   1.442       .  S
C642        C643   1.378       .  A
C642        C656   1.465       .  S
C643        C644   1.359       .  A
C643        H646   1.082       .  S
C644        C921   1.381   1_545  A
C644        H647   1.081       .  S
C645        N917   1.369       .  A
C645        C920   1.381       .  A
N648        C928   1.370       .  A
N648        C649   1.369   1_565  A
N648        N850   1.441       .  S
C649        C650   1.381       .  A
C649        C696   1.471       .  S
C650        C651   1.360   1_545  A
C650        H653   1.084       .  S
C651        C928   1.380       .  A
C651        H654   1.084       .  S
C652        N924   1.370       .  A
C652        C927   1.380       .  A
O655        C671   1.277       .  A
O655       Zn661   2.017       .  S
C656        O672   1.277   1_554  A
C656        O669   1.275       .  A
O657        C670   1.277   1_554  A
O657       Cd664   2.076       .  S
O658        C676   1.280       .  A
O658       Cd667   2.088       .  S
O659        C673   1.276       .  A
O659       Cd663   2.064       .  S
O660        C671   1.284       .  A
O660       Cd663   2.105       .  S
Zn661       O672   2.023       .  S
Zn661       O674   2.005       .  S
Zn661       O666   1.901       .  S
O662        C673   1.281   1_554  A
O662       Cd667   2.101       .  S
Cd663       O665   2.104       .  S
Cd663       O666   1.972       .  S
Cd664       O668   2.064       .  S
Cd664       O677   2.083       .  S
Cd664       O666   1.966   1_554  S
O665        C675   1.280   1_556  A
O666       Cd667   1.974   1_556  S
Cd667       O669   2.071       .  S
O668        C675   1.276       .  A
C670        O674   1.273       .  A
C671        C705   1.492       .  S
C676        C746   1.481       .  S
C676        O677   1.279       .  A
O678        C694   1.282       .  A
O678       Zn684   2.035       .  S
C679        O695   1.274       .  A
C679        O692   1.278       .  A
O680        C693   1.274       .  A
O680       Cd687   2.053       .  S
O681        C699   1.280       .  A
O681       Cd690   2.079       .  S
O682        C696   1.281       .  A
O682       Cd686   2.099       .  S
O683        C694   1.279       .  A
O683       Cd686   2.076       .  S
Zn684       O695   2.008       .  S
Zn684       O697   2.048       .  S
Zn684       O689   1.908       .  S
O685        C696   1.275       .  A
O685       Cd690   2.066       .  S
Cd686       O688   2.070       .  S
Cd686       O689   1.964       .  S
Cd687       O691   2.069       .  S
Cd687       O700   2.071       .  S
Cd687       O689   1.960       .  S
O688        C698   1.276       .  A
O689       Cd690   1.971       .  S
Cd690       O692   2.084       .  S
O691        C698   1.275       .  A
C693        O697   1.279       .  A
C694        C714   1.487       .  S
C699        C737   1.493       .  S
C699        O700   1.277       .  A
C701        C702   1.399       .  A
C701        C706   1.408       .  A
C701        H711   1.083       .  S
C702        C703   1.415       .  A
C702        C707   1.487       .  S
C703        C704   1.410       .  A
C703        C708   1.520       .  S
C704        C705   1.408       .  A
C704        H709   1.083       .  S
C705        C706   1.424       .  A
C706        C710   1.519       .  S
C707        C712   1.415       .  A
C707        C716   1.403       .  A
C708        F724   1.383       .  S
C708        F725   1.382       .  S
C708        F726   1.384       .  S
C710        F721   1.379       .  S
C710        F722   1.385       .  S
C710        F723   1.382       .  S
C712        C713   1.407       .  A
C712        C717   1.521       .  S
C713        C714   1.405       .  A
C713        H718   1.083       .  S
C714        C715   1.422       .  A
C715        C716   1.411       .  A
C715        C719   1.520       .  S
C716        H720   1.083       .  S
C717        F730   1.384       .  S
C717        F731   1.383       .  S
C717        F732   1.381       .  S
C719        F727   1.385       .  S
C719        F728   1.383       .  S
C719        F729   1.383       .  S
C733        C734   1.399       .  A
C733        C738   1.407       .  A
C733        H743   1.084       .  S
C734        C735   1.414       .  A
C734        C739   1.484       .  S
C735        C736   1.408       .  A
C735        C740   1.520       .  S
C736        C737   1.410       .  A
C736        H741   1.082       .  S
C737        C738   1.425       .  A
C738        C742   1.521       .  S
C739        C744   1.417       .  A
C739        C748   1.400       .  A
C740        F756   1.382       .  S
C740        F757   1.382       .  S
C740        F758   1.384       .  S
C742        F753   1.385       .  S
C742        F754   1.384       .  S
C742        F755   1.383       .  S
C744        C745   1.411       .  A
C744        C749   1.520       .  S
C745        C746   1.405       .  A
C745        H750   1.082       .  S
C746        C747   1.416       .  A
C747        C748   1.405       .  A
C747        C751   1.515       .  S
C748        H752   1.083       .  S
C749        F762   1.384       .  S
C749        F763   1.382       .  S
C749        F764   1.382       .  S
C751        F759   1.383       .  S
C751        F760   1.382       .  S
C751        F761   1.384       .  S
C765        C770   1.411       .  A
C765       H1051   1.083       .  S
C766        C767   1.415       .  A
C766        C771   1.487       .  S
C767        C768   1.408       .  A
C767        C772   1.521       .  S
C768        C769   1.407       .  A
C768        H773   1.083       .  S
C770       C1050   1.519       .  S
C771       C1052   1.415       .  A
C771        C780   1.399   1_655  A
C772        F788   1.383       .  S
C772        F789   1.381       .  S
C772        F790   1.385       .  S
C774       C1046   1.519       .  S
C774        F785   1.382       .  S
C774       F1062   1.385       .  S
C774        F787   1.383       .  S
H775       C1041   1.083       .  S
C776       C1047   1.415   1_545  A
C776        C777   1.410       .  A
C776        C781   1.519       .  S
C777       C1054   1.408   1_545  A
C777        H782   1.082       .  S
C778       C1053   1.408       .  A
C778        C779   1.424   1_655  A
C779        C780   1.406       .  A
C780        H784   1.083       .  S
C781        F794   1.385       .  S
C781        F795   1.383       .  S
C781        F796   1.381       .  S
C783        F791   1.383       .  S
C783        F792   1.378       .  S
F786       C1050   1.385       .  S
C797        C802   1.408       .  A
C797        H807   1.083       .  S
C798        C799   1.412       .  A
C798        C803   1.482       .  S
C799        C800   1.406       .  A
C799        C804   1.520       .  S
C800        C801   1.408       .  A
C800        H805   1.083       .  S
C802       C1082   1.520       .  S
C803        C808   1.416   1_655  A
C803       C1088   1.400       .  A
C804        F820   1.383       .  S
C804        F821   1.382       .  S
C804        F822   1.384       .  S
C806       C1078   1.520       .  S
C806       F1093   1.385       .  S
C806        F818   1.382       .  S
C806        F819   1.381       .  S
C808        C809   1.408       .  A
C809        C810   1.404   1_455  A
C810       C1087   1.419       .  A
C811       C1086   1.419       .  A
C811        C812   1.406       .  A
C811        C815   1.519   1_565  S
C812       C1079   1.400       .  A
C812        H816   1.083   1_565  S
C813        F826   1.384       .  S
C813        F827   1.383       .  S
C815        F823   1.384       .  S
C815        F824   1.382       .  S
C815        F825   1.379   1_545  S
F817       C1082   1.385       .  S
N829        C833   1.370       .  A
N829        C830   1.368       .  A
C830        C831   1.378       .  A
C830        C875   1.464       .  S
C831        C832   1.358       .  A
C831        H834   1.083       .  S
C832        C833   1.379       .  A
C832        H835   1.085       .  S
C833        C949   1.473       .  S
N836        C840   1.369       .  A
N836        C837   1.368       .  A
N836        N910   1.441       .  S
C837        C838   1.378       .  A
C837        C901   1.462       .  S
C838        C839   1.359       .  A
C838        H841   1.084       .  S
C839        C840   1.382       .  A
C839        H842   1.084       .  S
C840        C955   1.467       .  S
N843        C847   1.372       .  A
N843        C844   1.372       .  A
C844        C845   1.378       .  A
C844        C951   1.472       .  S
C845        C846   1.353       .  A
C845        H848   1.080       .  S
C846        C847   1.378       .  A
C846        H849   1.084       .  S
C847        C873   1.465       .  S
N850        C854   1.371       .  A
N850        C851   1.372       .  A
C851        C852   1.378       .  A
C851        C969   1.466       .  S
C852        C853   1.352       .  A
C852        H855   1.084       .  S
C853        C854   1.378       .  A
C853        H856   1.082       .  S
C854        C895   1.468       .  S
O857        C873   1.278   1_556  A
O857       Zn863   2.037       .  S
C858       C1045   1.491       .  S
C858        O874   1.281       .  A
O859       Cd866   2.080       .  S
O860       Cd869   2.108       .  S
O861        C875   1.276       .  A
O861       Cd865   2.069   1_556  S
O862        C873   1.274   1_545  A
Zn863       O874   2.030       .  S
Zn863       O876   2.003       .  S
Zn863       O868   1.907       .  S
O864        C875   1.277   1_455  A
Cd866       O870   2.080       .  S
Cd866       O879   2.059       .  S
O867        C877   1.277   1_545  A
C872        C904   1.465       .  S
C872        O876   1.273       .  A
C877       C1077   1.491       .  S
C878        C921   1.472       .  S
C878        O879   1.275       .  A
O880        C896   1.276       .  A
O880       Zn886   2.007       .  S
C881       C1054   1.490       .  S
C881        O897   1.283       .  A
O882        C895   1.274       .  A
O883        C901   1.274   1_455  A
O884        C898   1.276       .  A
O884       Cd888   2.075       .  S
O885       Cd888   2.101       .  S
Zn886       O897   2.055       .  S
Zn886       O899   2.050       .  S
Zn886       O891   1.908       .  S
O887       Cd892   2.079       .  S
Cd888       O890   2.090       .  S
Cd889       O902   2.073       .  S
O893        C900   1.277   1_545  A
C895        O899   1.279       .  A
C896        C911   1.472       .  S
C898        C928   1.468       .  S
C900       C1086   1.478       .  S
C901        O902   1.277       .  A
N903        C907   1.368       .  A
C905        C906   1.357       .  A
C905        H908   1.084       .  S
C906        C907   1.378       .  A
C906        H909   1.084       .  S
C907        C946   1.463       .  S
N910        C911   1.370       .  A
C912        C913   1.357       .  A
C912        H915   1.078       .  S
C913        C914   1.377       .  A
C913        H916   1.083       .  S
C914        C974   1.464       .  S
N917        C918   1.369       .  A
C918        C919   1.378       .  A
C918        C932   1.465       .  S
C919        C920   1.359       .  A
C919        H922   1.082       .  S
C920        H923   1.081       .  S
N924        C925   1.369       .  A
C925        C926   1.381       .  A
C925        C972   1.471       .  S
C926        C927   1.360       .  A
C926        H929   1.083       .  S
C927        H930   1.084       .  S
O931        C947   1.277       .  A
O931       Zn937   2.017       .  S
C932        O948   1.277   1_554  A
C932        O945   1.275       .  A
O933        C946   1.277   1_554  A
O933       Cd940   2.077       .  S
O934        C952   1.280       .  A
O934       Cd943   2.088       .  S
O935        C949   1.276       .  A
O935       Cd939   2.064       .  S
O936        C947   1.284       .  A
O936       Cd939   2.105       .  S
Zn937       O948   2.023       .  S
Zn937       O950   2.005       .  S
Zn937       O942   1.901       .  S
O938        C949   1.281   1_554  A
O938       Cd943   2.102       .  S
Cd939       O941   2.104       .  S
Cd939       O942   1.972       .  S
Cd940       O944   2.064       .  S
Cd940       O953   2.084       .  S
Cd940       O942   1.966   1_554  S
O941        C951   1.280   1_556  A
O942       Cd943   1.974   1_556  S
Cd943       O945   2.071       .  S
O944        C951   1.276       .  A
C946        O950   1.273       .  A
C947        C981   1.492       .  S
C952       C1022   1.481       .  S
C952        O953   1.279       .  A
O954        C970   1.281       .  A
O954       Zn960   2.035       .  S
C955        O971   1.274       .  A
C955        O968   1.278       .  A
O956        C969   1.274       .  A
O956       Cd963   2.053       .  S
O957        C975   1.280       .  A
O957       Cd966   2.079       .  S
O958        C972   1.281       .  A
O958       Cd962   2.099       .  S
O959        C970   1.279       .  A
O959       Cd962   2.076       .  S
Zn960       O971   2.008       .  S
Zn960       O973   2.048       .  S
Zn960       O965   1.908       .  S
O961        C972   1.275       .  A
O961       Cd966   2.066       .  S
Cd962       O964   2.070       .  S
Cd962       O965   1.964       .  S
Cd963       O967   2.069       .  S
Cd963       O976   2.071       .  S
Cd963       O965   1.960       .  S
O964        C974   1.276       .  A
O965       Cd966   1.971       .  S
Cd966       O968   2.084       .  S
O967        C974   1.275       .  A
C969        O973   1.279       .  A
C970        C990   1.487       .  S
C975       C1013   1.493       .  S
C975        O976   1.277       .  A
C977        C978   1.399       .  A
C977        C982   1.408       .  A
C977        H987   1.083       .  S
C978        C979   1.415       .  A
C978        C983   1.487       .  S
C979        C980   1.410       .  A
C979        C984   1.520       .  S
C980        C981   1.408       .  A
C980        H985   1.083       .  S
C981        C982   1.425       .  A
C982        C986   1.519       .  S
C983        C988   1.415       .  A
C983        C992   1.403       .  A
C984       F1000   1.383       .  S
C984       F1001   1.382       .  S
C984       F1002   1.384       .  S
C986        F997   1.379       .  S
C986        F998   1.385       .  S
C986        F999   1.382       .  S
C988        C989   1.407       .  A
C988        C993   1.521       .  S
C989        C990   1.405       .  A
C989        H994   1.083       .  S
C990        C991   1.422       .  A
C991        C992   1.411       .  A
C991        C995   1.520       .  S
C992        H996   1.083       .  S
C993       F1006   1.384       .  S
C993       F1007   1.383       .  S
C993       F1008   1.381       .  S
C995       F1003   1.385       .  S
C995       F1004   1.383       .  S
C995       F1005   1.383       .  S
C1009      C1010   1.399       .  A
C1009      C1014   1.407       .  A
C1009      H1019   1.083       .  S
C1010      C1011   1.414       .  A
C1010      C1015   1.484       .  S
C1011      C1012   1.408       .  A
C1011      C1016   1.520       .  S
C1012      C1013   1.410       .  A
C1012      H1017   1.082       .  S
C1013      C1014   1.425       .  A
C1014      C1018   1.521       .  S
C1015      C1020   1.417       .  A
C1015      C1024   1.400       .  A
C1016      F1032   1.382       .  S
C1016      F1033   1.382       .  S
C1016      F1034   1.384       .  S
C1018      F1029   1.385       .  S
C1018      F1030   1.384       .  S
C1018      F1031   1.383       .  S
C1020      C1021   1.411       .  A
C1020      C1025   1.520       .  S
C1021      C1022   1.405       .  A
C1021      H1026   1.083       .  S
C1022      C1023   1.416       .  A
C1023      C1024   1.405       .  A
C1023      C1027   1.515       .  S
C1024      H1028   1.084       .  S
C1025      F1038   1.384       .  S
C1025      F1039   1.382       .  S
C1025      F1040   1.382       .  S
C1027      F1035   1.383       .  S
C1027      F1036   1.382       .  S
C1027      F1037   1.384       .  S
C1041      C1046   1.411       .  A
C1042      C1043   1.415       .  A
C1042      C1047   1.487       .  S
C1043      C1044   1.408       .  A
C1043      C1048   1.521       .  S
C1044      C1045   1.407       .  A
C1044      H1049   1.083       .  S
C1047      C1056   1.399   1_655  A
C1048      F1064   1.383       .  S
C1048      F1065   1.381       .  S
C1048      F1066   1.385       .  S
C1050      F1061   1.382       .  S
C1050      F1063   1.383       .  S
C1052      C1053   1.410       .  A
C1052      C1057   1.519       .  S
C1053      H1058   1.083       .  S
C1054      C1055   1.424   1_655  A
C1055      C1056   1.406       .  A
C1056      H1060   1.083       .  S
C1057      F1070   1.385       .  S
C1057      F1071   1.383       .  S
C1057      F1072   1.381       .  S
C1059      F1067   1.383       .  S
C1059      F1068   1.378       .  S
C1073      C1078   1.408       .  A
C1073      H1083   1.083       .  S
C1074      C1075   1.412       .  A
C1074      C1079   1.482       .  S
C1075      C1076   1.406       .  A
C1075      C1080   1.520       .  S
C1076      C1077   1.408       .  A
C1076      H1081   1.083       .  S
C1079      C1084   1.416   1_655  A
C1080      F1096   1.383       .  S
C1080      F1097   1.382       .  S
C1080      F1098   1.384       .  S
C1082      F1094   1.382       .  S
C1082      F1095   1.381       .  S
C1084      C1085   1.408       .  A
C1085      C1086   1.404   1_455  A
C1087      C1088   1.406       .  A
C1087      C1091   1.519       .  S
C1088      H1092   1.083       .  S
C1089      F1102   1.384       .  S
C1089      F1103   1.383       .  S
C1091      F1099   1.384       .  S
C1091      F1100   1.382       .  S
C1091      F1101   1.379       .  S
