geometry optimzed in LAMMPS
_audit_creation_date              2020-11-30 
_audit_creation_method            'lammps2cif' 
_symmetry_space_group_name_H-M    'P1' 
_symmetry_Int_Tables_number       1 
_symmetry_cell_setting            triclinic 
loop_ 
_symmetry_equiv_pos_as_xyz 
  x,y,z 
_cell_length_a                    34.41607608 
_cell_length_b                    34.05670776104248 
_cell_length_c                    42.64837785063037 
_cell_angle_alpha                 89.8285557217034 
_cell_angle_beta                  89.49289267379274 
_cell_angle_gamma                 89.97154131425856 
loop_ 
_atom_site_label 
_atom_site_type_symbol 
_atom_site_fract_x 
_atom_site_fract_y 
_atom_site_fract_z 
_atom_site_charge 
O1          O  0.16525858  0.21786383  0.03067803    -0.70500
O2          O  0.13653808  0.28980107  0.46754435    -0.70700
O3          O  0.13776876  0.28932955  0.03154877    -0.70600
O4          O  0.16429794  0.21834205  0.46730575    -0.70600
O5          O  0.10546864  0.19546861  0.46770634    -0.70600
O6          O  0.07891256  0.26711129  0.03293566    -0.70600
O7          O  0.07779230  0.26714825  0.46794192    -0.70500
O8          O  0.10633430  0.19528845  0.03228601    -0.70700
V9          V  0.14971523  0.25346129  0.99927661     1.35200
V10         V  0.09314886  0.23160880  0.50020986     1.35200
C11         C  0.13953745  0.19787502  0.04460940     0.78700
C12         C  0.10376800  0.28756788  0.45447196     0.78800
C13         C  0.10543071  0.28712437  0.04568708     0.78600
C14         C  0.13827553  0.19837554  0.45425242     0.78600
O15         O  0.20287335  0.48316351  0.46780304    -0.70500
O16         O  0.23023736  0.05428083  0.03275282    -0.70700
O17         O  0.23020012  0.05492632  0.46825337    -0.70600
O18         O  0.20286021  0.48243184  0.03288244    -0.70600
O19         O  0.01171934  0.46016609  0.03186434    -0.70600
O20         O  0.03915663  0.03234513  0.46833609    -0.70600
O21         O  0.03920881  0.03170146  0.03158051    -0.70500
O22         O  0.01171079  0.46084468  0.46787769    -0.70700
V23         V  0.21756390  0.01832184  0.50042859     1.35200
V24         V  0.02415939  0.99660970  0.99993183     1.35200
C25         C  0.97923595  0.46321876  0.45438812     0.78700
C26         C  0.01338540  0.05174695  0.04521315     0.78800
C27         C  0.01321991  0.05240602  0.45513414     0.78600
C28         C  0.97920953  0.46224030  0.04577302     0.78600
C29         C  0.21376681  0.12412981  0.24990649     0.31300
C30         C  0.04347540  0.12773465  0.24983424     0.31300
C31         C  0.23458148  0.10466294  0.22180687    -0.04900
C32         C  0.23179629  0.16601538  0.24971454    -0.05700
C33         C  0.23405510  0.10477591  0.27820016    -0.05600
C34         C  0.02496220  0.10647724  0.22226460    -0.04900
C35         C  0.02227656  0.16802047  0.24970231    -0.05700
C36         C  0.02445283  0.10659708  0.27761532    -0.05600
C37         C  0.03853411  0.09275930  0.19421079    -0.31000
N38         N  0.00793991  0.08463638  0.17586034     0.15500
C39         C  0.22468943  0.09059875  0.19252725    -0.31000
H40         H  0.19574488  0.08748243  0.18316987     0.17500
C41         C  0.03191263  0.20771683  0.24962820    -0.30000
N42         N  0.99852511  0.22962479  0.24960065     0.14200
C43         C  0.21792311  0.20429874  0.24962090    -0.30000
C44         C  0.03761772  0.09259357  0.30558961    -0.30300
N45         N  0.00678407  0.08420511  0.32408723     0.14700
H46         H  0.06743237  0.09097619  0.31291029     0.17400
C47         C  0.22374840  0.09046391  0.30757227    -0.30300
H48         H  0.19465911  0.08738577  0.31707041     0.17400
H49         H  0.18768742  0.21292810  0.24963977     0.17400
H50         H  0.06843071  0.09111831  0.18676707     0.17400
H51         H  0.06107293  0.21948821  0.24965359     0.17400
C52         C  0.03042806  0.37709609  0.24999043     0.31300
C53         C  0.20078733  0.37321929  0.25004837     0.31300
C54         C  0.01022757  0.39681522  0.22207660    -0.04900
C55         C  0.01249863  0.33513958  0.25004315    -0.05700
C56         C  0.00964753  0.39676879  0.27785020    -0.05600
C57         C  0.22001213  0.39445015  0.22190362    -0.04900
C58         C  0.22203937  0.33301735  0.25003556    -0.05700
C59         C  0.21943492  0.39440857  0.27817414    -0.05600
C60         C  0.20786953  0.41130257  0.19426662    -0.31000
N61         N  0.98933853  0.42409088  0.17752054     0.15500
C62         C  0.02140183  0.41597176  0.19501015    -0.31000
H63         H  0.05106387  0.42242477  0.18861555     0.17500
C64         C  0.21246797  0.29331344  0.24981229    -0.30000
N65         N  0.99587644  0.27146352  0.24973667     0.14200
C66         C  0.02643773  0.29685178  0.24987863    -0.30000
C67         C  0.20688301  0.41153060  0.30577829    -0.30300
N68         N  0.98814508  0.42438385  0.32231033     0.14700
H69         H  0.17712466  0.41234986  0.31411062     0.17400
C70         C  0.02038204  0.41624944  0.30460504    -0.30300
H71         H  0.04993945  0.42310351  0.31054839     0.17400
H72         H  0.05668452  0.28825916  0.24981802     0.17400
H73         H  0.17824775  0.41196633  0.18603529     0.17400
H74         H  0.18332510  0.28150140  0.24968984     0.17400
C75         C  0.07576994  0.37786590  0.24999735     0.31300
C76         C  0.15542048  0.37392897  0.24996423     0.31300
C77         C  0.09493142  0.35677136  0.22188454    -0.04900
C78         C  0.09703466  0.41803268  0.24991540    -0.05700
C79         C  0.09438930  0.35662199  0.27815928    -0.05600
C80         C  0.13514560  0.35429301  0.22204612    -0.04900
C81         C  0.13749496  0.41586622  0.24988962    -0.05700
C82         C  0.13463244  0.35434076  0.27797155    -0.05600
C83         C  0.14614502  0.33542306  0.19485518    -0.30400
N84         N  0.11400898  0.32773541  0.17730731     0.15500
C85         C  0.08265506  0.34047780  0.19413834    -0.31000
H86         H  0.05302632  0.34014598  0.18592386     0.17500
C87         C  0.15145717  0.45411095  0.24992565    -0.30000
N88         N  0.12089898  0.47951758  0.24998980     0.14200
C89         C  0.08748347  0.45773177  0.24997207    -0.30000
C90         C  0.14529916  0.33587410  0.30533113    -0.30300
N91         N  0.11289987  0.32794467  0.32292512     0.14700
H92         H  0.17485610  0.32983958  0.31191682     0.17400
C93         C  0.08170148  0.34018960  0.30603163    -0.30300
H94         H  0.05191263  0.33943459  0.31432565     0.17400
H95         H  0.05833393  0.46959303  0.25004457     0.17400
H96         H  0.17576832  0.32882180  0.18844521     0.17400
H97         H  0.18169074  0.46266750  0.24994778     0.17400
C98         C  0.08876264  0.12678987  0.24978432     0.31300
C99         C  0.16848359  0.12317629  0.24978178     0.31300
C100        C  0.10901231  0.14635220  0.27780980    -0.04900
C101        C  0.10682302  0.08491829  0.24998503    -0.05700
C102        C  0.10958997  0.14613976  0.22152898    -0.05600
C103        C  0.14939845  0.14450568  0.27729189    -0.04900
C104        C  0.14730975  0.08289492  0.24998454    -0.05700
C105        C  0.14998094  0.14431009  0.22200494    -0.05600
C106        C  0.16251067  0.15914033  0.30496398    -0.31000
N107        N  0.13160714  0.16790617  0.32321856     0.15500
C108        C  0.09861323  0.16132579  0.30681997    -0.31000
H109        H  0.06950549  0.16454103  0.31624478     0.17500
C110        C  0.15695192  0.04319758  0.25004811    -0.30000
N111        N  0.12356276  0.02133307  0.25009022     0.14200
C112        C  0.09295002  0.04666603  0.25007659    -0.30000
C113        C  0.16358519  0.15888373  0.19415200    -0.30300
N114        N  0.13300142  0.16750436  0.17586249     0.14700
H115        H  0.19351254  0.16069899  0.18673186     0.17400
C116        C  0.09973055  0.16105821  0.19244116    -0.30300
H117        H  0.07078150  0.16437321  0.18310501     0.17400
H118        H  0.06272749  0.03806672  0.25005826     0.17400
H119        H  0.19230075  0.16088560  0.31230813     0.17400
H120        H  0.18612546  0.03139210  0.24998920     0.17400
C121        C  0.98668789  0.43662024  0.35514503    -0.04100
C122        C  0.01211521  0.41992921  0.37745864    -0.01200
C123        C  0.00364823  0.42182842  0.40976935     0.03800
C124        C  0.97568583  0.44872597  0.42123094    -0.04100
C125        C  0.20248697  0.46910510  0.39896369    -0.01200
C126        C  0.20666643  0.46147403  0.36636672     0.03800
C127        C  0.04992178  0.40583306  0.36823415     0.38400
C128        C  0.17649791  0.50027123  0.40893391     0.38400
C129        C  0.18242879  0.48221378  0.34413906     0.36800
C130        C  0.02560195  0.39726801  0.43121655     0.36800
N131        N  0.16304941  0.49876198  0.32641924    -0.38000
N132        N  0.04316879  0.37771452  0.44822295    -0.38000
N133        N  0.15630851  0.52565898  0.41677088    -0.37400
N134        N  0.08154875  0.39785540  0.36164477    -0.37400
C135        C  0.98792797  0.43634333  0.14472836    -0.04100
C136        C  0.01303272  0.41933474  0.12208411    -0.01200
C137        C  0.00402809  0.42082145  0.08997428     0.03800
C138        C  0.97569903  0.44738887  0.07890034    -0.04100
C139        C  0.20235919  0.46750490  0.10141857    -0.01200
C140        C  0.20759780  0.46088131  0.13396811     0.03800
C141        C  0.05077416  0.40483572  0.13068607     0.38400
C142        C  0.17450435  0.49691629  0.09161186     0.38400
C143        C  0.18396289  0.48219316  0.15653714     0.36800
C144        C  0.02538227  0.39582852  0.06827105     0.36800
N145        N  0.16508887  0.49922244  0.17451453    -0.38000
N146        N  0.04232838  0.37580311  0.05105214    -0.38000
N147        N  0.15265708  0.52080600  0.08386587    -0.37400
N148        N  0.08233889  0.39631033  0.13662789    -0.37400
C149        C  0.01855930  0.06517402  0.42218324    -0.04100
C150        C  0.03526647  0.03853686  0.40030612    -0.01200
C151        C  0.02951338  0.04407365  0.36803563     0.03800
C152        C  0.00990606  0.07750792  0.35721319    -0.04100
C153        C  0.24924877  0.10712946  0.37866797    -0.01200
C154        C  0.25152697  0.10015461  0.41117592     0.03800
C155        C  0.05819568  0.00519526  0.41057037     0.38400
C156        C  0.24132994  0.14624496  0.36726698     0.38400
C157        C  0.23798213  0.12951619  0.43325572     0.36800
C158        C  0.04583676  0.01671868  0.34555069     0.36800
N159        N  0.22733579  0.15283524  0.45104301    -0.38000
N160        N  0.05982474  0.99580401  0.32736956    -0.38000
N161        N  0.23727800  0.17806841  0.35839868    -0.37400
N162        N  0.07695708  0.47889932  0.41866234    -0.37400
C163        C  0.01917898  0.06475830  0.07789567    -0.04100
C164        C  0.00323228  0.10035839  0.08877748    -0.01200
C165        C  0.00132932  0.10770361  0.12124748     0.03800
C166        C  0.01134639  0.07796015  0.14278373    -0.04100
C167        C  0.28011483  0.04400955  0.13203728    -0.01200
C168        C  0.28547996  0.03799772  0.09975498     0.03800
C169        C  0.99051915  0.12991480  0.06659282     0.38400
C170        C  0.29586756  0.01655920  0.15460711     0.38400
C171        C  0.30762170  0.00409191  0.08946656     0.36800
C172        C  0.99419357  0.14704911  0.13244821     0.36800
N173        N  0.32583860  0.47734174  0.08139360    -0.38000
N174        N  0.99066058  0.17896667  0.14116614    -0.38000
N175        N  0.30934658  0.99566258  0.17295016    -0.37400
N176        N  0.98058233  0.15344623  0.04874962    -0.37400
C177        C  0.09938617  0.30284558  0.42161938    -0.04100
C178        C  0.12609107  0.33122345  0.41058329    -0.01200
C179        C  0.13501216  0.33383400  0.37840622     0.03800
C180        C  0.11097693  0.31600314  0.35580843    -0.04100
C181        C  0.08189455  0.28977966  0.36656802    -0.01200
C182        C  0.07720138  0.28192800  0.39910602     0.03800
C183        C  0.14590712  0.35697115  0.43236198     0.38400
C184        C  0.05974609  0.26760983  0.34390587     0.38400
C185        C  0.05158404  0.25027604  0.40879734     0.36800
C186        C  0.17226086  0.34959312  0.36965205     0.36800
N187        N  0.03149095  0.22462578  0.41631655    -0.38000
N188        N  0.20369744  0.35877432  0.36359819    -0.38000
N189        N  0.04225873  0.24977196  0.32579079    -0.37400
N190        N  0.16154232  0.37775425  0.44957067    -0.37400
C191        C  0.10211924  0.30195850  0.07876608    -0.04100
C192        C  0.07886808  0.28193225  0.10148139    -0.01200
C193        C  0.08257275  0.29039929  0.13387846     0.03800
C194        C  0.11251917  0.31544255  0.14453960    -0.04100
C195        C  0.13799115  0.33190664  0.12182388    -0.01200
C196        C  0.12997907  0.32910510  0.08959425     0.03800
C197        C  0.05348647  0.25009836  0.09223667     0.38400
C198        C  0.17508660  0.34756228  0.13068196     0.38400
C199        C  0.15206632  0.35323589  0.06762056     0.36800
C200        C  0.05746521  0.27066576  0.15640850     0.36800
N201        N  0.16975540  0.37252803  0.05026526    -0.38000
N202        N  0.03710751  0.25503138  0.17421385    -0.38000
N203        N  0.20624936  0.35700791  0.13694014    -0.37400
N204        N  0.03387831  0.22412267  0.08500406    -0.37400
C205        C  0.13457332  0.17441899  0.35627919    -0.04100
C206        C  0.15358940  0.20807972  0.36705723    -0.01200
C207        C  0.15945231  0.21333563  0.39930444     0.03800
C208        C  0.14330082  0.18618119  0.42118449    -0.04100
C209        C  0.12699489  0.15094591  0.41014765    -0.01200
C210        C  0.12481554  0.14426010  0.37764190     0.03800
C211        C  0.16991063  0.23553478  0.34451161     0.38400
C212        C  0.11452100  0.12085698  0.43211788     0.38400
C213        C  0.11825776  0.10499069  0.36611186     0.36800
C214        C  0.18232448  0.24666400  0.40947524     0.36800
N215        N  0.11530477  0.07315922  0.35710531    -0.38000
N216        N  0.20115687  0.27294239  0.41733524    -0.38000
N217        N  0.10476146  0.09675535  0.44966557    -0.37400
N218        N  0.18408329  0.25639229  0.32629082    -0.37400
C219        C  0.13644244  0.17374879  0.14268167    -0.04100
C220        C  0.12652010  0.14360625  0.12162430    -0.01200
C221        C  0.12873073  0.15022997  0.08903652     0.03800
C222        C  0.14527574  0.18532672  0.07753119    -0.04100
C223        C  0.16172591  0.21231120  0.09901336    -0.01200
C224        C  0.15566607  0.20726497  0.13139432     0.03800
C225        C  0.11951605  0.10442868  0.13345868     0.38400
C226        C  0.18502447  0.24525137  0.08822636     0.38400
C227        C  0.17151480  0.23503455  0.15353152     0.36800
C228        C  0.11587936  0.12026621  0.06741850     0.36800
N229        N  0.18513933  0.25620668  0.17149401    -0.38000
N230        N  0.10580823  0.09627963  0.05014012    -0.38000
N231        N  0.20420114  0.27116155  0.07974616    -0.37400
N232        N  0.11616709  0.07261946  0.14262476    -0.37400
O233        O  0.16526209  0.21785447  0.53067883    -0.70500
O234        O  0.13655913  0.28982261  0.96754442    -0.70700
O235        O  0.13775040  0.28931122  0.53154672    -0.70600
O236        O  0.16429578  0.21835370  0.96730689    -0.70600
O237        O  0.10545874  0.19550038  0.96770516    -0.70600
O238        O  0.07890039  0.26707614  0.53293496    -0.70600
O239        O  0.07780593  0.26718943  0.96794290    -0.70500
O240        O  0.10634433  0.19526202  0.53228870    -0.70700
V241        V  0.14970697  0.25344517  0.49927596     1.35200
V242        V  0.09315039  0.23164258  0.00020929     1.35200
C243        C  0.13954627  0.19786107  0.54461256     0.78700
C244        C  0.10378884  0.28759819  0.95447129     0.78800
C245        C  0.10541254  0.28709965  0.54568441     0.78600
C246        C  0.13826784  0.19839466  0.95425348     0.78600
O247        O  0.20283637  0.48315093  0.96780517    -0.70500
O248        O  0.23026229  0.05429720  0.53275086    -0.70700
O249        O  0.23017209  0.05491019  0.96825524    -0.70600
O250        O  0.20289485  0.48244323  0.53287968    -0.70600
O251        O  0.01175585  0.46018495  0.53186556    -0.70600
O252        O  0.03912634  0.03232298  0.96833869    -0.70600
O253        O  0.03923648  0.03172461  0.53158147    -0.70500
O254        O  0.01167279  0.46082778  0.96787905    -0.70700
V255        V  0.21753242  0.01830731  0.00043096     1.35200
V256        V  0.02419286  0.99663057  0.49993066     1.35200
C257        C  0.97919815  0.46320488  0.95439015     0.78700
C258        C  0.01340929  0.05176663  0.54521362     0.78800
C259        C  0.01319244  0.05238747  0.95513708     0.78600
C260        C  0.97924404  0.46225395  0.54577218     0.78600
C261        C  0.21376686  0.12413146  0.74991313     0.31300
C262        C  0.04347535  0.12773667  0.74984013     0.31300
C263        C  0.23458107  0.10466552  0.72181283    -0.04900
C264        C  0.23179621  0.16601737  0.74972215    -0.05700
C265        C  0.23405556  0.10477660  0.77820615    -0.05600
C266        C  0.02496174  0.10648005  0.72227041    -0.04900
C267        C  0.02227642  0.16802250  0.74970899    -0.05700
C268        C  0.02445310  0.10659817  0.77762142    -0.05600
C269        C  0.03853325  0.09276736  0.69421500    -0.31000
N270        N  0.00793914  0.08464600  0.67586406     0.15500
C271        C  0.22468869  0.09060573  0.69253167    -0.31000
H272        H  0.19574420  0.08749033  0.68317434     0.17500
C273        C  0.03191255  0.20771899  0.74963339    -0.30000
N274        N  0.99852513  0.22962716  0.74960587     0.14200
C275        C  0.21792311  0.20430101  0.74962787    -0.30000
C276        C  0.03761781  0.09259089  0.80559485    -0.30300
N277        N  0.00678394  0.08419918  0.82409147     0.14700
H278        H  0.06743275  0.09097325  0.81291546     0.17400
C279        C  0.22374889  0.09046032  0.80757683    -0.30300
H280        H  0.19465950  0.08738128  0.81707461     0.17400
H281        H  0.18768763  0.21293035  0.74964680     0.17400
H282        H  0.06842962  0.09112886  0.68677043     0.17400
H283        H  0.06107276  0.21949027  0.74965690     0.17400
C284        C  0.03042830  0.37709946  0.74999315     0.31300
C285        C  0.20078780  0.37322227  0.75004134     0.31300
C286        C  0.01023122  0.39682032  0.72207829    -0.04900
C287        C  0.01249905  0.33514264  0.75004376    -0.05700
C288        C  0.00964384  0.39677091  0.77785232    -0.05600
C289        C  0.22001658  0.39445483  0.72189970    -0.04900
C290        C  0.22204000  0.33302038  0.75003010    -0.05700
C291        C  0.21943062  0.39441041  0.77817049    -0.05600
C292        C  0.20787882  0.41131128  0.69426270    -0.31000
N293        N  0.98935011  0.42410185  0.67752196     0.15500
C294        C  0.02140979  0.41598226  0.69501545    -0.31000
H295        H  0.05107276  0.42244000  0.68862628     0.17500
C296        C  0.21246860  0.29331634  0.74980801    -0.30000
N297        N  0.99587675  0.27146611  0.74973897     0.14200
C298        C  0.02643804  0.29685452  0.74988338    -0.30000
C299        C  0.20687255  0.41152836  0.80577477    -0.30300
N300        N  0.98813106  0.42438046  0.82231248     0.14700
H301        H  0.17711260  0.41234590  0.81410379     0.17400
C302        C  0.02037234  0.41624773  0.80461113    -0.30300
H303        H  0.04992872  0.42309883  0.81056057     0.17400
H304        H  0.05668472  0.28826183  0.74982772     0.17400
H305        H  0.17825858  0.41197622  0.68602834     0.17400
H306        H  0.18332565  0.28150432  0.74968306     0.17400
C307        C  0.07577038  0.37786852  0.74999750     0.31300
C308        C  0.15542106  0.37393141  0.74995462     0.31300
C309        C  0.09492724  0.35677541  0.72188087    -0.04900
C310        C  0.09703523  0.41803508  0.74991535    -0.05700
C311        C  0.09439463  0.35662302  0.77815595    -0.05600
C312        C  0.13514199  0.35429855  0.72203659    -0.04900
C313        C  0.13749552  0.41586854  0.74988448    -0.05700
C314        C  0.13463739  0.35434008  0.77796211    -0.05600
C315        C  0.14613576  0.33543213  0.69484210    -0.30400
N316        N  0.11399533  0.32774177  0.67729943     0.15500
C317        C  0.08264479  0.34048087  0.69413617    -0.31000
H318        H  0.05301428  0.34014602  0.68592659     0.17500
C319        C  0.15145786  0.45411315  0.74992142    -0.30000
N320        N  0.12089966  0.47951975  0.74999104     0.14200
C321        C  0.08748405  0.45773409  0.74997623    -0.30000
C322        C  0.14531056  0.33587050  0.80531837    -0.30300
N323        N  0.11291599  0.32794454  0.82291833     0.14700
H324        H  0.17486875  0.32983061  0.81189693     0.17400
C325        C  0.08171357  0.34019241  0.80603059    -0.30300
H326        H  0.05192681  0.33944079  0.81432989     0.17400
H327        H  0.05833465  0.46959534  0.75005348     0.17400
H328        H  0.17575808  0.32883631  0.68842543     0.17400
H329        H  0.18169141  0.46266968  0.74994025     0.17400
C330        C  0.08876277  0.12679183  0.74978904     0.31300
C331        C  0.16848373  0.12317765  0.74978786     0.31300
C332        C  0.10901200  0.14635145  0.77781572    -0.04900
C333        C  0.10682290  0.08492010  0.74998784    -0.05700
C334        C  0.10959124  0.14614430  0.72153485    -0.05600
C335        C  0.14939810  0.14450413  0.77729877    -0.04900
C336        C  0.14730964  0.08289647  0.74998784    -0.05700
C337        C  0.14998219  0.14431470  0.72201204    -0.05600
C338        C  0.16250986  0.15913936  0.80497067    -0.31000
N339        N  0.13160570  0.16790820  0.82322355     0.15500
C340        C  0.09861207  0.16132738  0.80682469    -0.31000
H341        H  0.06950411  0.16454471  0.81624835     0.17500
C342        C  0.15695166  0.04319920  0.75005051    -0.30000
N343        N  0.12356246  0.02133486  0.75009167     0.14200
C344        C  0.09294970  0.04666789  0.75007830    -0.30000
C345        C  0.16358832  0.15889214  0.69416087    -0.30300
N346        N  0.13300617  0.16751395  0.67587014     0.14700
H347        H  0.19351645  0.16070785  0.68674219     0.17400
C348        C  0.09973407  0.16106519  0.69244703    -0.30300
H349        H  0.07078581  0.16437918  0.68310932     0.17400
H350        H  0.06272732  0.03806871  0.75005958     0.17400
H351        H  0.19229971  0.16088399  0.81231594     0.17400
H352        H  0.18612519  0.03139357  0.74999229     0.17400
C353        C  0.98666469  0.43661130  0.85514844    -0.04100
C354        C  0.01208529  0.41991611  0.87746483    -0.01200
C355        C  0.00361160  0.42181303  0.90977433     0.03800
C356        C  0.97564895  0.44871211  0.92123339    -0.04100
C357        C  0.20245512  0.46909287  0.89896450    -0.01200
C358        C  0.20664172  0.46146453  0.86636752     0.03800
C359        C  0.04988986  0.40581040  0.86824492     0.38400
C360        C  0.17646779  0.50026166  0.90893307     0.38400
C361        C  0.18241370  0.48221167  0.84413742     0.36800
C362        C  0.02556232  0.39725158  0.93122326     0.36800
N363        N  0.16304262  0.49876751  0.82641618    -0.38000
N364        N  0.04312916  0.37769840  0.94822996    -0.38000
N365        N  0.15628060  0.52565188  0.91676881    -0.37400
N366        N  0.08151606  0.39782219  0.86166186    -0.37400
C367        C  0.98794690  0.43635666  0.64472985    -0.04100
C368        C  0.01305757  0.41935040  0.62208865    -0.01200
C369        C  0.00405980  0.42083700  0.58997723     0.03800
C370        C  0.97572984  0.44740089  0.57889946    -0.04100
C371        C  0.20238357  0.46751377  0.60141481    -0.01200
C372        C  0.20761822  0.46089290  0.63396524     0.03800
C373        C  0.05079987  0.40485928  0.63069609     0.38400
C374        C  0.17452296  0.49691729  0.59160441     0.38400
C375        C  0.18398052  0.48220552  0.65653178     0.36800
C376        C  0.02541835  0.39584426  0.56827700     0.36800
N377        N  0.16510604  0.49923577  0.67450825    -0.38000
N378        N  0.04236668  0.37581714  0.55106076    -0.38000
N379        N  0.15267094  0.52080068  0.58385500    -0.37400
N380        N  0.08236475  0.39634289  0.63664530    -0.37400
C381        C  0.01853711  0.06515713  0.92218756    -0.04100
C382        C  0.03524751  0.03852049  0.90031147    -0.01200
C383        C  0.02950405  0.04406186  0.86804038     0.03800
C384        C  0.00990336  0.07749986  0.85721731    -0.04100
C385        C  0.24924607  0.10712034  0.87867216    -0.01200
C386        C  0.25151319  0.10014108  0.91117998     0.03800
C387        C  0.05817241  0.00517629  0.91057734     0.38400
C388        C  0.24133848  0.14623902  0.86727262     0.38400
C389        C  0.23796634  0.12950276  0.93325893     0.36800
C390        C  0.04583305  0.01670887  0.84555663     0.36800
N391        N  0.22731760  0.15282325  0.95104411    -0.38000
N392        N  0.05982726  0.99579486  0.82737811    -0.38000
N393        N  0.23729504  0.17806453  0.85840628    -0.37400
N394        N  0.07692983  0.47887760  0.91867297    -0.37400
C395        C  0.01919578  0.06477667  0.57789819    -0.04100
C396        C  0.00324147  0.10037346  0.58878064    -0.01200
C397        C  0.00133009  0.10771513  0.62125120     0.03800
C398        C  0.01134729  0.07797143  0.64278711    -0.04100
C399        C  0.28012372  0.04402658  0.63204031    -0.01200
C400        C  0.28549553  0.03801797  0.59975814     0.03800
C401        C  0.99053027  0.12993117  0.56659644     0.38400
C402        C  0.29587669  0.01657722  0.65461094     0.38400
C403        C  0.30764082  0.00411431  0.58947115     0.36800
C404        C  0.99418944  0.14705889  0.63245364     0.36800
N405        N  0.32585923  0.47736301  0.58139888    -0.38000
N406        N  0.99065382  0.17897518  0.64117380    -0.38000
N407        N  0.30935497  0.99568254  0.67295576    -0.37400
N408        N  0.98059552  0.15346442  0.54875400    -0.37400
C409        C  0.09941320  0.30286734  0.92161540    -0.04100
C410        C  0.12612746  0.33123266  0.91057262    -0.01200
C411        C  0.13504810  0.33382999  0.87839455     0.03800
C412        C  0.11100174  0.31600399  0.85580186    -0.04100
C413        C  0.08191372  0.28979131  0.86656750    -0.01200
C414        C  0.07722168  0.28194907  0.89910665     0.03800
C415        C  0.14594792  0.35698438  0.93234512     0.38400
C416        C  0.05975642  0.26762316  0.84390992     0.38400
C417        C  0.05159671  0.25030616  0.90880387     0.36800
C418        C  0.17230936  0.34955622  0.86963516     0.36800
N419        N  0.03149787  0.22466249  0.91632759    -0.38000
N420        N  0.20375285  0.35870608  0.86357259    -0.38000
N421        N  0.04226226  0.24978794  0.82579748    -0.37400
N422        N  0.16158319  0.37777227  0.94955004    -0.37400
C423        C  0.10209631  0.30194262  0.57876054    -0.04100
C424        C  0.07885351  0.28191513  0.60148050    -0.01200
C425        C  0.08255725  0.29039318  0.63387617     0.03800
C426        C  0.11249797  0.31544781  0.64453173    -0.04100
C427        C  0.13795927  0.33191759  0.62181091    -0.01200
C428        C  0.12994584  0.32910380  0.58958227     0.03800
C429        C  0.05348337  0.25006913  0.59224170     0.38400
C430        C  0.17504394  0.34760214  0.63066361     0.38400
C431        C  0.15202368  0.35323617  0.56760309     0.36800
C432        C  0.05745457  0.27066038  0.65640992     0.36800
N433        N  0.16970719  0.37252985  0.55024512    -0.38000
N434        N  0.03709949  0.25502557  0.67421696    -0.38000
N435        N  0.20620064  0.35707388  0.63691515    -0.37400
N436        N  0.03388484  0.22408456  0.58501241    -0.37400
C437        C  0.13457070  0.17442496  0.85628340    -0.04100
C438        C  0.15359712  0.20808074  0.86705976    -0.01200
C439        C  0.15945836  0.21333831  0.89930685     0.03800
C440        C  0.14329267  0.18619356  0.92118771    -0.04100
C441        C  0.12697389  0.15096341  0.91015286    -0.01200
C442        C  0.12479961  0.14427274  0.87764793     0.03800
C443        C  0.16992701  0.23552989  0.84451334     0.38400
C444        C  0.11448078  0.12088323  0.93212385     0.38400
C445        C  0.11823734  0.10500224  0.86612206     0.36800
C446        C  0.18234155  0.24665921  0.90947717     0.36800
N447        N  0.11528252  0.07316868  0.85712068    -0.38000
N448        N  0.20118192  0.27293117  0.91733823    -0.38000
N449        N  0.10470493  0.09678680  0.94967026    -0.37400
N450        N  0.18410530  0.25638354  0.82629248    -0.37400
C451        C  0.13644989  0.17375354  0.64268862    -0.04100
C452        C  0.12653721  0.14360456  0.62163412    -0.01200
C453        C  0.12874995  0.15022240  0.58904561     0.03800
C454        C  0.14528610  0.18532159  0.57753668    -0.04100
C455        C  0.16172636  0.21231527  0.59901660    -0.01200
C456        C  0.15566674  0.20727231  0.63139823     0.03800
C457        C  0.11953777  0.10442828  0.63347321     0.38400
C458        C  0.18501411  0.24526182  0.58822657     0.38400
C459        C  0.17151109  0.23504714  0.65353316     0.36800
C460        C  0.11590770  0.12025169  0.56743025     0.36800
N461        N  0.18513354  0.25622309  0.67149373    -0.38000
N462        N  0.10584379  0.09626084  0.55015291    -0.38000
N463        N  0.20418234  0.27117738  0.57974432    -0.37400
N464        N  0.11619115  0.07262096  0.64264411    -0.37400
O465        O  0.16525864  0.71786283  0.03067779    -0.70500
O466        O  0.13654073  0.78980125  0.46754456    -0.70700
O467        O  0.13777042  0.78932917  0.03154826    -0.70600
O468        O  0.16430022  0.71834217  0.46730529    -0.70600
O469        O  0.10547112  0.69546823  0.46770659    -0.70600
O470        O  0.07891389  0.76711182  0.03293546    -0.70600
O471        O  0.07779518  0.76714797  0.46794132    -0.70500
O472        O  0.10633406  0.69528819  0.03228532    -0.70700
V473        V  0.14971613  0.75346043  0.99927620     1.35200
V474        V  0.09315139  0.73160896  0.50020969     1.35200
C475        C  0.13953711  0.69787427  0.04460892     0.78700
C476        C  0.10377100  0.78756775  0.45447168     0.78800
C477        C  0.10543237  0.78712456  0.04568668     0.78600
C478        C  0.13827771  0.69837540  0.45425228     0.78600
O479        O  0.20287527  0.98316392  0.46780244    -0.70500
O480        O  0.23023660  0.55428118  0.03275236    -0.70700
O481        O  0.23019900  0.55492552  0.46825360    -0.70600
O482        O  0.20286209  0.98243094  0.03288215    -0.70600
O483        O  0.01172170  0.96016646  0.03186476    -0.70600
O484        O  0.03915452  0.53234284  0.46833572    -0.70600
O485        O  0.03920847  0.53170019  0.03158052    -0.70500
O486        O  0.01171314  0.96084693  0.46787651    -0.70700
V487        V  0.21756254  0.51832138  0.50042905     1.35200
V488        V  0.02415803  0.49660920  0.99993162     1.35200
C489        C  0.97923788  0.96322032  0.45438749     0.78700
C490        C  0.01338557  0.55174656  0.04521296     0.78800
C491        C  0.01321807  0.55240433  0.45513397     0.78600
C492        C  0.97921170  0.96223960  0.04577324     0.78600
C493        C  0.21376581  0.62412968  0.24990617     0.31300
C494        C  0.04347448  0.62773414  0.24983412     0.31300
C495        C  0.23458031  0.60466261  0.22180653    -0.04900
C496        C  0.23179556  0.66601516  0.24971414    -0.05700
C497        C  0.23405401  0.60477575  0.27819990    -0.05600
C498        C  0.02496130  0.60647659  0.22226448    -0.04900
C499        C  0.02227590  0.66802003  0.24970194    -0.05700
C500        C  0.02445171  0.60659686  0.27761529    -0.05600
C501        C  0.03853321  0.59275844  0.19421070    -0.31000
N502        N  0.00793899  0.58463583  0.17586016     0.15500
C503        C  0.22468803  0.59059891  0.19252677    -0.31000
H504        H  0.19574355  0.58748278  0.18316948     0.17500
C505        C  0.03191241  0.70771628  0.24962775    -0.30000
N506        N  0.99852513  0.72962455  0.24960019     0.14200
C507        C  0.21792277  0.70429872  0.24962064    -0.30000
C508        C  0.03761620  0.59259347  0.30558973    -0.30300
N509        N  0.00678241  0.58420487  0.32408714     0.14700
H510        H  0.06743105  0.59097618  0.31291068     0.17400
C511        C  0.22374711  0.59046369  0.30757201    -0.30300
H512        H  0.19465802  0.58738562  0.31706998     0.17400
H513        H  0.18768734  0.71292833  0.24963960     0.17400
H514        H  0.06842976  0.59111724  0.18676706     0.17400
H515        H  0.06107276  0.71948728  0.24965325     0.17400
C516        C  0.03042950  0.87709582  0.24999065     0.31300
C517        C  0.20078878  0.87321926  0.25004790     0.31300
C518        C  0.01022914  0.89681486  0.22207680    -0.04900
C519        C  0.01249984  0.83513931  0.25004347    -0.05700
C520        C  0.00964898  0.89676884  0.27785029    -0.05600
C521        C  0.22001378  0.89444966  0.22190309    -0.04900
C522        C  0.22204060  0.83301722  0.25003534    -0.05700
C523        C  0.21943639  0.89440868  0.27817357    -0.05600
C524        C  0.20787134  0.91130167  0.19426594    -0.31000
N525        N  0.98934042  0.92408993  0.17752058     0.15500
C526        C  0.02140359  0.91597121  0.19501037    -0.31000
H527        H  0.05106566  0.92242463  0.18861599     0.17500
C528        C  0.21246883  0.79331345  0.24981199    -0.30000
N529        N  0.99587695  0.77146336  0.24973651     0.14200
C530        C  0.02643854  0.79685131  0.24987877    -0.30000
C531        C  0.20688453  0.91153091  0.30577762    -0.30300
N532        N  0.98814640  0.92438475  0.32231005     0.14700
H533        H  0.17712598  0.91235009  0.31411003     0.17400
C534        C  0.02038337  0.91624997  0.30460492    -0.30300
H535        H  0.04994104  0.92310417  0.31054835     0.17400
H536        H  0.05668516  0.78825843  0.24981814     0.17400
H537        H  0.17824968  0.91196546  0.18603459     0.17400
H538        H  0.18332570  0.78150162  0.24968950     0.17400
C539        C  0.07577137  0.87786576  0.24999733     0.31300
C540        C  0.15542192  0.87392910  0.24996376     0.31300
C541        C  0.09493270  0.85677123  0.22188439    -0.04900
C542        C  0.09703596  0.91803266  0.24991528    -0.05700
C543        C  0.09439103  0.85662200  0.27815914    -0.05600
C544        C  0.13514690  0.85429304  0.22204580    -0.04900
C545        C  0.13749627  0.91586633  0.24988922    -0.05700
C546        C  0.13463416  0.85434085  0.27797113    -0.05600
C547        C  0.14614625  0.83542320  0.19485482    -0.30400
N548        N  0.11401021  0.82773556  0.17730697     0.15500
C549        C  0.08265628  0.84047772  0.19413814    -0.31000
H550        H  0.05302759  0.84014582  0.18592375     0.17500
C551        C  0.15145831  0.95411112  0.24992538    -0.30000
N552        N  0.12090006  0.97951769  0.24998987     0.14200
C553        C  0.08748455  0.95773177  0.24997226    -0.30000
C554        C  0.14530133  0.83587426  0.30533058    -0.30300
N555        N  0.11290226  0.82794476  0.32292478     0.14700
H556        H  0.17485824  0.82983976  0.31191598     0.17400
C557        C  0.08170361  0.84018964  0.30603159    -0.30300
H558        H  0.05191483  0.83943458  0.31432587     0.17400
H559        H  0.05833526  0.96959283  0.25004512     0.17400
H560        H  0.17576967  0.82882191  0.18844483     0.17400
H561        H  0.18169190  0.96266778  0.24994746     0.17400
C562        C  0.08876167  0.62678958  0.24978428     0.31300
C563        C  0.16848259  0.62317619  0.24978151     0.31300
C564        C  0.10901140  0.64635182  0.27780983    -0.04900
C565        C  0.10682210  0.58491813  0.24998481    -0.05700
C566        C  0.10958884  0.64613959  0.22152890    -0.05600
C567        C  0.14939755  0.64450541  0.27729176    -0.04900
C568        C  0.14730882  0.58289479  0.24998416    -0.05700
C569        C  0.14997982  0.64431008  0.22200476    -0.05600
C570        C  0.16250995  0.65914053  0.30496366    -0.31000
N571        N  0.13160656  0.66790650  0.32321837     0.15500
C572        C  0.09861247  0.66132572  0.30682000    -0.31000
H573        H  0.06950501  0.66454099  0.31624486     0.17500
C574        C  0.15695096  0.54319745  0.25004763    -0.30000
N575        N  0.12356181  0.52133297  0.25008983     0.14200
C576        C  0.09294907  0.54666591  0.25007635    -0.30000
C577        C  0.16358385  0.65888337  0.19415163    -0.30300
N578        N  0.13300002  0.66750355  0.17586208     0.14700
H579        H  0.19351133  0.66069878  0.18673134     0.17400
C580        C  0.09972922  0.66105749  0.19244091    -0.30300
H581        H  0.07078020  0.66437227  0.18310484     0.17400
H582        H  0.06272658  0.53806666  0.25005828     0.17400
H583        H  0.19230016  0.66088603  0.31230763     0.17400
H584        H  0.18612458  0.53139192  0.24998874     0.17400
C585        C  0.98668912  0.93662128  0.35514473    -0.04100
C586        C  0.01211633  0.91993012  0.37745839    -0.01200
C587        C  0.00364933  0.92182937  0.40976905     0.03800
C588        C  0.97568710  0.94872702  0.42123057    -0.04100
C589        C  0.20248819  0.96910514  0.39896314    -0.01200
C590        C  0.20666754  0.96147402  0.36636615     0.03800
C591        C  0.04992270  0.90583325  0.36823405     0.38400
C592        C  0.17649817  0.00027042  0.40893354     0.38400
C593        C  0.18242909  0.98221301  0.34413863     0.36800
C594        C  0.02560272  0.89726877  0.43121631     0.36800
N595        N  0.16304896  0.99876068  0.32641903    -0.38000
N596        N  0.04316940  0.87771508  0.44822270    -0.38000
N597        N  0.15630797  0.02565748  0.41677064    -0.37400
N598        N  0.08154953  0.89785470  0.36164498    -0.37400
C599        C  0.98793004  0.93634249  0.14472851    -0.04100
C600        C  0.01303548  0.91933471  0.12208439    -0.01200
C601        C  0.00403095  0.92082123  0.08997455     0.03800
C602        C  0.97570139  0.94738807  0.07890053    -0.04100
C603        C  0.20236150  0.96750419  0.10141820    -0.01200
C604        C  0.20759993  0.96088023  0.13396764     0.03800
C605        C  0.05077736  0.90483687  0.13068650     0.38400
C606        C  0.17450760  0.99691665  0.09161179     0.38400
C607        C  0.18396462  0.98219148  0.15653673     0.36800
C608        C  0.02538560  0.89582870  0.06827139     0.36800
N609        N  0.16509013  0.99922006  0.17451426    -0.38000
N610        N  0.04233196  0.87580361  0.05105238    -0.38000
N611        N  0.15266104  0.02080726  0.08386631    -0.37400
N612        N  0.08234230  0.89631254  0.13662860    -0.37400
C613        C  0.01855753  0.56517267  0.42218311    -0.04100
C614        C  0.03526448  0.53853563  0.40030576    -0.01200
C615        C  0.02951117  0.54407274  0.36803530     0.03800
C616        C  0.00990406  0.57750723  0.35721312    -0.04100
C617        C  0.24924770  0.60712871  0.37866796    -0.01200
C618        C  0.25152609  0.60015370  0.41117594     0.03800
C619        C  0.05819413  0.50519421  0.41056972     0.38400
C620        C  0.24132964  0.64624435  0.36726696     0.38400
C621        C  0.23798219  0.62951551  0.43325586     0.36800
C622        C  0.04583418  0.51671798  0.34555004     0.36800
N623        N  0.22733671  0.65283461  0.45104343    -0.38000
N624        N  0.05982155  0.49580354  0.32736844    -0.38000
N625        N  0.23727836  0.67806773  0.35839827    -0.37400
N626        N  0.07695810  0.97890005  0.41866308    -0.37400
C627        C  0.01917900  0.56475767  0.07789554    -0.04100
C628        C  0.00323251  0.60035792  0.08877725    -0.01200
C629        C  0.00132910  0.60770312  0.12124722     0.03800
C630        C  0.01134553  0.57795954  0.14278355    -0.04100
C631        C  0.28011296  0.54400971  0.13203676    -0.01200
C632        C  0.28547873  0.53799794  0.09975454     0.03800
C633        C  0.99051989  0.62991448  0.06659255     0.38400
C634        C  0.29586504  0.51655923  0.15460677     0.38400
C635        C  0.30762037  0.50409195  0.08946650     0.36800
C636        C  0.99419365  0.64704871  0.13244783     0.36800
N637        N  0.32583983  0.97734184  0.08139319    -0.38000
N638        N  0.99066091  0.67896633  0.14116566    -0.38000
N639        N  0.30934366  0.49566260  0.17294998    -0.37400
N640        N  0.98058352  0.65344615  0.04874939    -0.37400
C641        C  0.09938981  0.80284509  0.42161893    -0.04100
C642        C  0.12609523  0.83122252  0.41058275    -0.01200
C643        C  0.13501564  0.83383347  0.37840560     0.03800
C644        C  0.11097987  0.81600300  0.35580799    -0.04100
C645        C  0.08189775  0.78977933  0.36656761    -0.01200
C646        C  0.07720480  0.78192761  0.39910560     0.03800
C647        C  0.14591288  0.85696911  0.43236136     0.38400
C648        C  0.05974938  0.76760947  0.34390540     0.38400
C649        C  0.05158735  0.75027570  0.40879684     0.36800
C650        C  0.17226420  0.84959271  0.36965108     0.36800
N651        N  0.03149419  0.72462544  0.41631586    -0.38000
N652        N  0.20370070  0.85877398  0.36359701    -0.38000
N653        N  0.04226226  0.74977163  0.32579013    -0.37400
N654        N  0.16154960  0.87775122  0.44956992    -0.37400
C655        C  0.10212101  0.80195880  0.07876563    -0.04100
C656        C  0.07886954  0.78193275  0.10148084    -0.01200
C657        C  0.08257398  0.79039976  0.13387792     0.03800
C658        C  0.11252040  0.81544293  0.14453919    -0.04100
C659        C  0.13799265  0.83190686  0.12182357    -0.01200
C660        C  0.12998091  0.82910522  0.08959389     0.03800
C661        C  0.05348771  0.75009906  0.09223600     0.38400
C662        C  0.17508832  0.84756192  0.13068175     0.38400
C663        C  0.15206893  0.85323535  0.06762026     0.36800
C664        C  0.05746637  0.77066603  0.15640778     0.36800
N665        N  0.16975870  0.87252711  0.05026516    -0.38000
N666        N  0.03710853  0.75503138  0.17421289    -0.38000
N667        N  0.20625124  0.85700699  0.13693991    -0.37400
N668        N  0.03387923  0.72412367  0.08500334    -0.37400
C669        C  0.13457301  0.67441943  0.35627899    -0.04100
C670        C  0.15358984  0.70807981  0.36705695    -0.01200
C671        C  0.15945382  0.71333531  0.39930409     0.03800
C672        C  0.14330229  0.68618109  0.42118428    -0.04100
C673        C  0.12699495  0.65094643  0.41014749    -0.01200
C674        C  0.12481485  0.64426079  0.37764179     0.03800
C675        C  0.16991101  0.73553476  0.34451125     0.38400
C676        C  0.11452025  0.62085777  0.43211766     0.38400
C677        C  0.11825604  0.60499150  0.36611189     0.36800
C678        C  0.18232698  0.74666318  0.40947466     0.36800
N679        N  0.11530221  0.57315995  0.35710573    -0.38000
N680        N  0.20115995  0.77294125  0.41733437    -0.38000
N681        N  0.10476004  0.59675618  0.44966514    -0.37400
N682        N  0.18408369  0.75639227  0.32629050    -0.37400
C683        C  0.13644097  0.67374802  0.14268123    -0.04100
C684        C  0.12651858  0.64360555  0.12162379    -0.01200
C685        C  0.12872942  0.65022934  0.08903600     0.03800
C686        C  0.14527479  0.68532596  0.07753077    -0.04100
C687        C  0.16172474  0.71231040  0.09901301    -0.01200
C688        C  0.15566461  0.70726422  0.13139391     0.03800
C689        C  0.11951420  0.60442799  0.13345803     0.38400
C690        C  0.18502366  0.74525033  0.08822611     0.38400
C691        C  0.17151312  0.73503391  0.15353109     0.36800
C692        C  0.11587826  0.62026564  0.06741783     0.36800
N693        N  0.18513743  0.75620612  0.17149361    -0.38000
N694        N  0.10580741  0.59627925  0.05013919    -0.38000
N695        N  0.20420073  0.77116020  0.07974590    -0.37400
N696        N  0.11616511  0.57261865  0.14262382    -0.37400
O697        O  0.16526470  0.71785404  0.53067852    -0.70500
O698        O  0.13656076  0.78982176  0.96754377    -0.70700
O699        O  0.13775330  0.78931077  0.53154690    -0.70600
O700        O  0.16429597  0.71835224  0.96730666    -0.70600
O701        O  0.10545815  0.69550094  0.96770451    -0.70600
O702        O  0.07890287  0.76707677  0.53293443    -0.70600
O703        O  0.07780675  0.76719056  0.96794309    -0.70500
O704        O  0.10634654  0.69526265  0.53228883    -0.70700
V705        V  0.14970960  0.75344503  0.49927586     1.35200
V706        V  0.09315077  0.73164301  0.00020897     1.35200
C707        C  0.13954863  0.69786122  0.54461247     0.78700
C708        C  0.10379005  0.78759845  0.95447118     0.78800
C709        C  0.10541516  0.78709975  0.54568421     0.78600
C710        C  0.13826748  0.69839418  0.95425304     0.78600
O711        O  0.20283863  0.98315086  0.96780493    -0.70500
O712        O  0.23026158  0.55429685  0.53275116    -0.70700
O713        O  0.23017092  0.55490980  0.96825484    -0.70600
O714        O  0.20289646  0.98244334  0.53287899    -0.70600
O715        O  0.01175800  0.96018533  0.53186440    -0.70600
O716        O  0.03912601  0.53232231  0.96833869    -0.70600
O717        O  0.03923480  0.53172415  0.53158114    -0.70500
O718        O  0.01167522  0.96082761  0.96787941    -0.70700
V719        V  0.21753091  0.51830751  0.00043086     1.35200
V720        V  0.02419077  0.49662926  0.49993109     1.35200
C721        C  0.97920074  0.96320415  0.95439023     0.78700
C722        C  0.01340781  0.55176622  0.54521347     0.78800
C723        C  0.01319255  0.55238712  0.95513686     0.78600
C724        C  0.97924637  0.96225442  0.54577130     0.78600
C725        C  0.21376770  0.62413143  0.74991271     0.31300
C726        C  0.04347629  0.62773673  0.74983980     0.31300
C727        C  0.23458206  0.60466533  0.72181252    -0.04900
C728        C  0.23179694  0.66601745  0.74972163    -0.05700
C729        C  0.23405637  0.60477685  0.77820586    -0.05600
C730        C  0.02496264  0.60648016  0.72227010    -0.04900
C731        C  0.02227728  0.66802246  0.74970888    -0.05700
C732        C  0.02445430  0.60659805  0.77762112    -0.05600
C733        C  0.03853404  0.59276757  0.69421465    -0.31000
N734        N  0.00793993  0.58464580  0.67586389     0.15500
C735        C  0.22468984  0.59060517  0.69253141    -0.31000
H736        H  0.19574539  0.58748976  0.68317397     0.17500
C737        C  0.03191337  0.70771893  0.74963341    -0.30000
N738        N  0.99852594  0.72962706  0.74960606     0.14200
C739        C  0.21792378  0.70430112  0.74962762    -0.30000
C740        C  0.03761939  0.59259056  0.80559443    -0.30300
N741        N  0.00678559  0.58419886  0.82409121     0.14700
H742        H  0.06743396  0.59097287  0.81291477     0.17400
C743        C  0.22374960  0.59046039  0.80757651    -0.30300
H744        H  0.19466051  0.58738096  0.81707409     0.17400
H745        H  0.18768840  0.71293048  0.74964657     0.17400
H746        H  0.06843065  0.59112935  0.68676986     0.17400
H747        H  0.06107364  0.71949023  0.74965678     0.17400
C748        C  0.03042937  0.87709916  0.74999239     0.31300
C749        C  0.20078873  0.87322241  0.75004107     0.31300
C750        C  0.01023234  0.89682013  0.72207757    -0.04900
C751        C  0.01250002  0.83514247  0.75004301    -0.05700
C752        C  0.00964505  0.89677061  0.77785159    -0.05600
C753        C  0.22001749  0.89445477  0.72189926    -0.04900
C754        C  0.22204082  0.83302048  0.75002992    -0.05700
C755        C  0.21943173  0.89441061  0.77817011    -0.05600
C756        C  0.20787981  0.91131126  0.69426220    -0.31000
N757        N  0.98935145  0.92410189  0.67752123     0.15500
C758        C  0.02141107  0.91598198  0.69501474    -0.31000
H759        H  0.05107401  0.92243953  0.68862563     0.17500
C760        C  0.21246936  0.79331650  0.74980802    -0.30000
N761        N  0.99587758  0.77146602  0.74973891     0.14200
C762        C  0.02643892  0.79685434  0.74988297    -0.30000
C763        C  0.20687396  0.91152835  0.80577459    -0.30300
N764        N  0.98813289  0.92437943  0.82231219     0.14700
H765        H  0.17711429  0.91234596  0.81410371     0.17400
C766        C  0.02037391  0.91624689  0.80461051    -0.30300
H767        H  0.04993035  0.92309789  0.81055968     0.17400
H768        H  0.05668558  0.78826159  0.74982739     0.17400
H769        H  0.17825953  0.91197644  0.68602789     0.17400
H770        H  0.18332622  0.78150452  0.74968322     0.17400
C771        C  0.07577139  0.87786810  0.74999691     0.31300
C772        C  0.15542202  0.87393140  0.74995444     0.31300
C773        C  0.09492850  0.85677484  0.72188047    -0.04900
C774        C  0.09703598  0.91803474  0.74991464    -0.05700
C775        C  0.09439554  0.85662287  0.77815562    -0.05600
C776        C  0.13514326  0.85429821  0.72203642    -0.04900
C777        C  0.13749626  0.91586846  0.74988402    -0.05700
C778        C  0.13463830  0.85434011  0.77796198    -0.05600
C779        C  0.14613738  0.83543173  0.69484208    -0.30400
N780        N  0.11399720  0.82774108  0.67729927     0.15500
C781        C  0.08264643  0.84048007  0.69413576    -0.31000
H782        H  0.05301587  0.84014511  0.68592591     0.17500
C783        C  0.15145824  0.95411321  0.74992095    -0.30000
N784        N  0.12089984  0.97951961  0.74999030     0.14200
C785        C  0.08748438  0.95773366  0.74997531    -0.30000
C786        C  0.14531139  0.83587074  0.80531846    -0.30300
N787        N  0.11291667  0.82794469  0.82291827     0.14700
H788        H  0.17486925  0.82983110  0.81189719     0.17400
C789        C  0.08171431  0.84019226  0.80603027    -0.30300
H790        H  0.05192765  0.83944049  0.81432935     0.17400
H791        H  0.05833506  0.96959461  0.75005234     0.17400
H792        H  0.17575995  0.82883601  0.68842557     0.17400
H793        H  0.18169177  0.96267001  0.74994000     0.17400
C794        C  0.08876365  0.62679201  0.74978854     0.31300
C795        C  0.16848457  0.62317756  0.74978744     0.31300
C796        C  0.10901288  0.64635171  0.77781512    -0.04900
C797        C  0.10682360  0.58492027  0.74998756    -0.05700
C798        C  0.10959219  0.64614428  0.72153429    -0.05600
C799        C  0.14939898  0.64450429  0.77729825    -0.04900
C800        C  0.14731032  0.58289644  0.74998763    -0.05700
C801        C  0.14998312  0.64431444  0.72201151    -0.05600
C802        C  0.16251065  0.65913918  0.80497031    -0.31000
N803        N  0.13160637  0.66790781  0.82322314     0.15500
C804        C  0.09861287  0.66132731  0.80682413    -0.31000
H805        H  0.06950466  0.66454455  0.81624778     0.17500
C806        C  0.15695203  0.54319911  0.75005094    -0.30000
N807        N  0.12356271  0.52133500  0.75009230     0.14200
C808        C  0.09295010  0.54666817  0.75007853    -0.30000
C809        C  0.16358943  0.65889209  0.69416049    -0.30300
N810        N  0.13300739  0.66751444  0.67586982     0.14700
H811        H  0.19351747  0.66070756  0.68674188     0.17400
C812        C  0.09973516  0.66106566  0.69244659    -0.30300
H813        H  0.07078699  0.66437987  0.68310886     0.17400
H814        H  0.06272777  0.53806920  0.75005981     0.17400
H815        H  0.19230043  0.66088368  0.81231574     0.17400
H816        H  0.18612561  0.53139326  0.74999297     0.17400
C817        C  0.98666697  0.93661013  0.85514822    -0.04100
C818        C  0.01208825  0.91991549  0.87746441    -0.01200
C819        C  0.00361527  0.92181284  0.90977407     0.03800
C820        C  0.97565220  0.94871149  0.92123330    -0.04100
C821        C  0.20245814  0.96909340  0.89896424    -0.01200
C822        C  0.20664408  0.96146455  0.86636732     0.03800
C823        C  0.04989309  0.90581093  0.86824399     0.38400
C824        C  0.17647201  0.00026332  0.90893259     0.38400
C825        C  0.18241608  0.98221188  0.84413732     0.36800
C826        C  0.02556760  0.89725277  0.93122293     0.36800
N827        N  0.16304503  0.99876800  0.82641622    -0.38000
N828        N  0.04313592  0.87770090  0.94822958    -0.38000
N829        N  0.15628569  0.02565441  0.91676794    -0.37400
N830        N  0.08151937  0.89782393  0.86166025    -0.37400
C831        C  0.98794859  0.93635675  0.64472908    -0.04100
C832        C  0.01305942  0.91935043  0.62208796    -0.01200
C833        C  0.00406224  0.92083749  0.58997640     0.03800
C834        C  0.97573237  0.94740143  0.57889859    -0.04100
C835        C  0.20238533  0.96751404  0.60141406    -0.01200
C836        C  0.20761963  0.96089300  0.63396454     0.03800
C837        C  0.05080146  0.90485886  0.63069560     0.38400
C838        C  0.17452497  0.99691774  0.59160356     0.38400
C839        C  0.18398205  0.98220601  0.65653094     0.36800
C840        C  0.02542181  0.89584567  0.56827609     0.36800
N841        N  0.16510769  0.99923676  0.67450720    -0.38000
N842        N  0.04237110  0.87581941  0.55105982    -0.38000
N843        N  0.15267297  0.02080109  0.58385406    -0.37400
N844        N  0.08236621  0.89634198  0.63664484    -0.37400
C845        C  0.01853771  0.56515661  0.92218738    -0.04100
C846        C  0.03524823  0.53851983  0.90031144    -0.01200
C847        C  0.02950578  0.54406156  0.86804024     0.03800
C848        C  0.00990525  0.57749964  0.85721704    -0.04100
C849        C  0.24924636  0.60712043  0.87867205    -0.01200
C850        C  0.25151274  0.60014065  0.91117981     0.03800
C851        C  0.05817153  0.50517460  0.91057762     0.38400
C852        C  0.24133887  0.64623934  0.86727283     0.38400
C853        C  0.23796519  0.62950195  0.93325884     0.36800
C854        C  0.04583574  0.51670883  0.84555669     0.36800
N855        N  0.22731570  0.65282226  0.95104389    -0.38000
N856        N  0.05983113  0.49579497  0.82737862    -0.38000
N857        N  0.23729540  0.67806504  0.85840696    -0.37400
N858        N  0.07693220  0.97888018  0.91867230    -0.37400
C859        C  0.01919511  0.56477644  0.57789794    -0.04100
C860        C  0.00324189  0.60037364  0.58878052    -0.01200
C861        C  0.00133099  0.60771525  0.62125112     0.03800
C862        C  0.01134789  0.57797134  0.64278691    -0.04100
C863        C  0.28012452  0.54402593  0.63204000    -0.01200
C864        C  0.28549576  0.53801728  0.59975778     0.03800
C865        C  0.99053169  0.62993182  0.56659640     0.38400
C866        C  0.29587787  0.51657656  0.65461047     0.38400
C867        C  0.30764003  0.50411307  0.58947051     0.36800
C868        C  0.99419097  0.64705899  0.63245383     0.36800
N869        N  0.32586096  0.97736475  0.58139983    -0.38000
N870        N  0.99065589  0.67897513  0.64117447    -0.38000
N871        N  0.30935662  0.49568180  0.67295502    -0.37400
N872        N  0.98059790  0.65346552  0.54875399    -0.37400
C873        C  0.09941403  0.80286773  0.92161545    -0.04100
C874        C  0.12612774  0.83123349  0.91057274    -0.01200
C875        C  0.13504843  0.83383091  0.87839467     0.03800
C876        C  0.11100227  0.81600455  0.85580193    -0.04100
C877        C  0.08191440  0.78979171  0.86656762    -0.01200
C878        C  0.07722274  0.78194919  0.89910675     0.03800
C879        C  0.14594717  0.85698581  0.93234537     0.38400
C880        C  0.05975703  0.76762341  0.84391016     0.38400
C881        C  0.05159887  0.75030534  0.90880394     0.36800
C882        C  0.17230966  0.84955739  0.86963544     0.36800
N883        N  0.03150101  0.72466086  0.91632761    -0.38000
N884        N  0.20375315  0.85870745  0.86357307    -0.38000
N885        N  0.04226270  0.74978796  0.82579797    -0.37400
N886        N  0.16158129  0.87777430  0.94955053    -0.37400
C887        C  0.10209877  0.80194245  0.57876038    -0.04100
C888        C  0.07885612  0.78191455  0.60148020    -0.01200
C889        C  0.08255981  0.79039229  0.63387592     0.03800
C890        C  0.11250029  0.81544712  0.64453159    -0.04100
C891        C  0.13796173  0.83191703  0.62181094    -0.01200
C892        C  0.12994842  0.82910341  0.58958228     0.03800
C893        C  0.05348602  0.75006857  0.59224123     0.38400
C894        C  0.17504650  0.84760141  0.63066376     0.38400
C895        C  0.15202665  0.85323556  0.56760320     0.36800
C896        C  0.05745750  0.77065892  0.65640965     0.36800
N897        N  0.16971049  0.87252899  0.55024528    -0.38000
N898        N  0.03710274  0.75502374  0.67421673    -0.38000
N899        N  0.20620329  0.85707294  0.63691520    -0.37400
N900        N  0.03388726  0.72408418  0.58501193    -0.37400
C901        C  0.13457108  0.67442441  0.85628301    -0.04100
C902        C  0.15359715  0.70808030  0.86705946    -0.01200
C903        C  0.15945814  0.71333786  0.89930655     0.03800
C904        C  0.14329224  0.68619313  0.92118730    -0.04100
C905        C  0.12697369  0.65096291  0.91015243    -0.01200
C906        C  0.12479994  0.64427210  0.87764749     0.03800
C907        C  0.16992741  0.73552936  0.84451315     0.38400
C908        C  0.11448052  0.62088278  0.93212343     0.38400
C909        C  0.11823864  0.60500140  0.86612170     0.36800
C910        C  0.18234169  0.74665844  0.90947697     0.36800
N911        N  0.11528483  0.57316770  0.85712042    -0.38000
N912        N  0.20118247  0.77293015  0.91733798    -0.38000
N913        N  0.10470470  0.59678648  0.94966999    -0.37400
N914        N  0.18410619  0.75638293  0.82629246    -0.37400
C915        C  0.13645140  0.67375403  0.64268834    -0.04100
C916        C  0.12653841  0.64360516  0.62163385    -0.01200
C917        C  0.12875148  0.65022293  0.58904538     0.03800
C918        C  0.14528843  0.68532172  0.57753650    -0.04100
C919        C  0.16172907  0.71231517  0.59901643    -0.01200
C920        C  0.15566911  0.70727238  0.63139804     0.03800
C921        C  0.11953848  0.60442895  0.63347293     0.38400
C922        C  0.18501741  0.74526132  0.58822646     0.38400
C923        C  0.17151386  0.73504690  0.65353302     0.36800
C924        C  0.11590798  0.62025278  0.56743001     0.36800
N925        N  0.18513669  0.75622262  0.67149361    -0.38000
N926        N  0.10584274  0.59626251  0.55015267    -0.38000
N927        N  0.20418608  0.77117665  0.57974435    -0.37400
N928        N  0.11619174  0.57262163  0.64264385    -0.37400
O929        O  0.41525942  0.21786322  0.03067808    -0.70500
O930        O  0.38653763  0.28980137  0.46754457    -0.70700
O931        O  0.38777019  0.28932920  0.03154876    -0.70600
O932        O  0.41429774  0.21834252  0.46730547    -0.70600
O933        O  0.35546862  0.19546865  0.46770614    -0.70600
O934        O  0.32891377  0.26711154  0.03293531    -0.70600
O935        O  0.32779201  0.26714821  0.46794192    -0.70500
O936        O  0.35633492  0.19528841  0.03228587    -0.70700
V937        V  0.39971649  0.25346076  0.99927656     1.35200
V938        V  0.34314876  0.23160870  0.50020977     1.35200
C939        C  0.38953800  0.19787468  0.04460936     0.78700
C940        C  0.35376761  0.28756812  0.45447212     0.78800
C941        C  0.35543195  0.28712436  0.04568689     0.78600
C942        C  0.38827544  0.19837586  0.45425217     0.78600
O943        O  0.45287415  0.48316331  0.46780281    -0.70500
O944        O  0.48023705  0.05428002  0.03275295    -0.70700
O945        O  0.48020014  0.05492680  0.46825338    -0.70600
O946        O  0.45285933  0.48243209  0.03288223    -0.70600
O947        O  0.26171903  0.46016588  0.03186438    -0.70600
O948        O  0.28915697  0.03234536  0.46833596    -0.70600
O949        O  0.28920884  0.03170077  0.03158070    -0.70500
O950        O  0.26171140  0.46084529  0.46787731    -0.70700
V951        V  0.46756423  0.01832225  0.50042856     1.35200
V952        V  0.27415928  0.99660950  0.99993172     1.35200
C953        C  0.22923646  0.46321936  0.45438791     0.78700
C954        C  0.26338551  0.05174641  0.04521328     0.78800
C955        C  0.26322030  0.05240629  0.45513401     0.78600
C956        C  0.22920924  0.46223994  0.04577309     0.78600
C957        C  0.46376673  0.12412963  0.24990632     0.31300
C958        C  0.29347545  0.12773450  0.24983418     0.31300
C959        C  0.48458143  0.10466284  0.22180668    -0.04900
C960        C  0.48179618  0.16601521  0.24971440    -0.05700
C961        C  0.48405499  0.10477569  0.27819999    -0.05600
C962        C  0.27496226  0.10647696  0.22226458    -0.04900
C963        C  0.27227663  0.16802037  0.24970215    -0.05700
C964        C  0.27445289  0.10659697  0.27761528    -0.05600
C965        C  0.28853414  0.09275869  0.19421087    -0.31000
N966        N  0.25793991  0.08463558  0.17586050     0.15500
C967        C  0.47468943  0.09059866  0.19252705    -0.31000
H968        H  0.44574489  0.08748238  0.18316962     0.17500
C969        C  0.28191266  0.20771676  0.24962798    -0.30000
N970        N  0.24852510  0.22962470  0.24960050     0.14200
C971        C  0.46792299  0.20429862  0.24962086    -0.30000
C972        C  0.28761769  0.09259356  0.30558959    -0.30300
N973        N  0.25678407  0.08420519  0.32408722     0.14700
H974        H  0.31743262  0.09097625  0.31291040     0.17400
C975        C  0.47374817  0.09046367  0.30757211    -0.30300
H976        H  0.44465916  0.08738553  0.31707012     0.17400
H977        H  0.43768760  0.21292795  0.24963975     0.17400
H978        H  0.31843071  0.09111765  0.18676713     0.17400
H979        H  0.31107291  0.21948815  0.24965345     0.17400
C980        C  0.28042812  0.37709597  0.24999054     0.31300
C981        C  0.45078725  0.37321906  0.25004838     0.31300
C982        C  0.26022750  0.39681503  0.22207675    -0.04900
C983        C  0.26249868  0.33513946  0.25004344    -0.05700
C984        C  0.25964772  0.39676879  0.27785027    -0.05600
C985        C  0.47001182  0.39444972  0.22190345    -0.04900
C986        C  0.47203934  0.33301716  0.25003565    -0.05700
C987        C  0.46943491  0.39440856  0.27817403    -0.05600
C988        C  0.45786895  0.41130185  0.19426644    -0.31000
N989        N  0.23933825  0.42409048  0.17752068     0.15500
C990        C  0.27140160  0.41597156  0.19501028    -0.31000
H991        H  0.30106374  0.42242471  0.18861560     0.17500
C992        C  0.46246799  0.29331325  0.24981247    -0.30000
N993        N  0.24587644  0.27146343  0.24973684     0.14200
C994        C  0.27643770  0.29685166  0.24987884    -0.30000
C995        C  0.45688313  0.41153066  0.30577826    -0.30300
N996        N  0.23814545  0.42438453  0.32231016     0.14700
H997        H  0.42712508  0.41234996  0.31411069     0.17400
C998        C  0.27038236  0.41624984  0.30460488    -0.30300
H999        H  0.29993976  0.42310402  0.31054805     0.17400
H1000       H  0.30668462  0.28825897  0.24981807     0.17400
H1001       H  0.42824690  0.41196551  0.18603524     0.17400
H1002       H  0.43332511  0.28150117  0.24969014     0.17400
C1003       C  0.32576997  0.37786573  0.24999738     0.31300
C1004       C  0.40542045  0.37392870  0.24996428     0.31300
C1005       C  0.34493135  0.35677091  0.22188464    -0.04900
C1006       C  0.34703475  0.41803249  0.24991524    -0.05700
C1007       C  0.34438932  0.35662209  0.27815944    -0.05600
C1008       C  0.38514550  0.35429249  0.22204627    -0.04900
C1009       C  0.38749503  0.41586598  0.24988947    -0.05700
C1010       C  0.38463247  0.35434085  0.27797175    -0.05600
C1011       C  0.39614497  0.33542248  0.19485534    -0.30400
N1012       N  0.36400898  0.32773504  0.17730732     0.15500
C1013       C  0.33265497  0.34047746  0.19413831    -0.31000
H1014       H  0.30302652  0.34014577  0.18592382     0.17500
C1015       C  0.40145731  0.45411070  0.24992557    -0.30000
N1016       N  0.37089916  0.47951739  0.24998959     0.14200
C1017       C  0.33748360  0.45773159  0.24997185    -0.30000
C1018       C  0.39529921  0.33587463  0.30533152    -0.30300
N1019       N  0.36289988  0.32794533  0.32292550     0.14700
H1020       H  0.42485613  0.32984023  0.31191735     0.17400
C1021       C  0.33170155  0.34018999  0.30603188    -0.30300
H1022       H  0.30191248  0.33943494  0.31432593     0.17400
H1023       H  0.30833423  0.46959280  0.25004431     0.17400
H1024       H  0.42576811  0.32882116  0.18844553     0.17400
H1025       H  0.43169090  0.46266726  0.24994782     0.17400
C1026       C  0.33876265  0.12678968  0.24978432     0.31300
C1027       C  0.41848355  0.12317605  0.24978163     0.31300
C1028       C  0.35901238  0.14635205  0.27780976    -0.04900
C1029       C  0.35682303  0.08491808  0.24998501    -0.05700
C1030       C  0.35958989  0.14613953  0.22152896    -0.05600
C1031       C  0.39939850  0.14450543  0.27729179    -0.04900
C1032       C  0.39730976  0.08289468  0.24998438    -0.05700
C1033       C  0.39998084  0.14430985  0.22200484    -0.05600
C1034       C  0.41251085  0.15914028  0.30496378    -0.31000
N1035       N  0.38160740  0.16790624  0.32321838     0.15500
C1036       C  0.34861334  0.16132580  0.30681993    -0.31000
H1037       H  0.31950597  0.16454108  0.31624474     0.17500
C1038       C  0.40695193  0.04319734  0.25004790    -0.30000
N1039       N  0.37356275  0.02133284  0.25009018     0.14200
C1040       C  0.34295004  0.04666583  0.25007663    -0.30000
C1041       C  0.41358499  0.15888344  0.19415190    -0.30300
N1042       N  0.38300123  0.16750407  0.17586245     0.14700
H1043       H  0.44351247  0.16069871  0.18673166     0.17400
C1044       C  0.34973036  0.16105789  0.19244114    -0.30300
H1045       H  0.32078134  0.16437282  0.18310505     0.17400
H1046       H  0.31272745  0.03806651  0.25005842     0.17400
H1047       H  0.44230095  0.16088563  0.31230783     0.17400
H1048       H  0.43612547  0.03139183  0.24998890     0.17400
C1049       C  0.23668837  0.43662113  0.35514482    -0.04100
C1050       C  0.26211572  0.41993014  0.37745841    -0.01200
C1051       C  0.25364862  0.42182904  0.40976912     0.03800
C1052       C  0.22568620  0.44872653  0.42123076    -0.04100
C1053       C  0.45248785  0.46910546  0.39896348    -0.01200
C1054       C  0.45666722  0.46147447  0.36636650     0.03800
C1055       C  0.29992243  0.40583440  0.36823393     0.38400
C1056       C  0.42649875  0.50027153  0.40893383     0.38400
C1057       C  0.43242966  0.48221440  0.34413889     0.36800
C1058       C  0.27560236  0.39726857  0.43121628     0.36800
N1059       N  0.41305031  0.49876284  0.32641921    -0.38000
N1060       N  0.29316933  0.37771515  0.44822267    -0.38000
N1061       N  0.40630923  0.52565917  0.41677086    -0.37400
N1062       N  0.33154943  0.39785688  0.36164452    -0.37400
C1063       C  0.23792755  0.43634277  0.14472848    -0.04100
C1064       C  0.26303259  0.41933453  0.12208426    -0.01200
C1065       C  0.25402816  0.42082138  0.08997439     0.03800
C1066       C  0.22569891  0.44738858  0.07890043    -0.04100
C1067       C  0.45235798  0.46750438  0.10141830    -0.01200
C1068       C  0.45759639  0.46088036  0.13396781     0.03800
C1069       C  0.30077396  0.40483538  0.13068629     0.38400
C1070       C  0.42450352  0.49691621  0.09161174     0.38400
C1071       C  0.43396089  0.48219153  0.15653683     0.36800
C1072       C  0.27538269  0.39582872  0.06827120     0.36800
N1073       N  0.41508636  0.49922032  0.17451421    -0.38000
N1074       N  0.29232921  0.37580346  0.05105242    -0.38000
N1075       N  0.40265656  0.52080628  0.08386589    -0.37400
N1076       N  0.33233864  0.39630976  0.13662813    -0.37400
C1077       C  0.26855977  0.06517439  0.42218317    -0.04100
C1078       C  0.28526704  0.03853724  0.40030603    -0.01200
C1079       C  0.27951374  0.04407390  0.36803554     0.03800
C1080       C  0.25990613  0.07750805  0.35721317    -0.04100
C1081       C  0.49924843  0.10712958  0.37866772    -0.01200
C1082       C  0.50152641  0.10015477  0.41117569     0.03800
C1083       C  0.30819665  0.00519586  0.41057029     0.38400
C1084       C  0.49132998  0.14624515  0.36726660     0.38400
C1085       C  0.48798099  0.12951622  0.43325533     0.36800
C1086       C  0.29583709  0.01671892  0.34555053     0.36800
N1087       N  0.47733413  0.15283518  0.45104249    -0.38000
N1088       N  0.30982499  0.99580415  0.32736941    -0.38000
N1089       N  0.48727833  0.17806862  0.35839824    -0.37400
N1090       N  0.32695796  0.47889963  0.41866233    -0.37400
C1091       C  0.26917894  0.06475743  0.07789588    -0.04100
C1092       C  0.25323253  0.10035763  0.08877772    -0.01200
C1093       C  0.25132959  0.10770285  0.12124768     0.03800
C1094       C  0.26134637  0.07795929  0.14278391    -0.04100
C1095       C  0.53011510  0.04400933  0.13203721    -0.01200
C1096       C  0.53548024  0.03799739  0.09975493     0.03800
C1097       C  0.24051968  0.12991421  0.06659316     0.38400
C1098       C  0.54586780  0.01655904  0.15460709     0.38400
C1099       C  0.55762208  0.00409160  0.08946666     0.36800
C1100       C  0.24419411  0.14704843  0.13244833     0.36800
N1101       N  0.57583776  0.47734071  0.08139316    -0.38000
N1102       N  0.24066136  0.17896607  0.14116612    -0.38000
N1103       N  0.55934669  0.99566247  0.17295023    -0.37400
N1104       N  0.23058309  0.15344591  0.04875010    -0.37400
C1105       C  0.34938581  0.30284604  0.42161963    -0.04100
C1106       C  0.37609078  0.33122397  0.41058374    -0.01200
C1107       C  0.38501187  0.33383472  0.37840667     0.03800
C1108       C  0.36097681  0.31600383  0.35580878    -0.04100
C1109       C  0.33189447  0.28978023  0.36656819    -0.01200
C1110       C  0.32720109  0.28192858  0.39910615     0.03800
C1111       C  0.39590712  0.35697122  0.43236265     0.38400
C1112       C  0.30974619  0.26761041  0.34390587     0.38400
C1113       C  0.30158346  0.25027682  0.40879730     0.36800
C1114       C  0.42226038  0.34959427  0.36965257     0.36800
N1115       N  0.28149012  0.22462668  0.41631633    -0.38000
N1116       N  0.45369689  0.35877580  0.36359887    -0.38000
N1117       N  0.29225906  0.24977258  0.32579061    -0.37400
N1118       N  0.41154258  0.37775389  0.44957154    -0.37400
C1119       C  0.35212010  0.30195847  0.07876589    -0.04100
C1120       C  0.32886868  0.28193218  0.10148100    -0.01200
C1121       C  0.33257296  0.29039921  0.13387812     0.03800
C1122       C  0.36251938  0.31544228  0.14453955    -0.04100
C1123       C  0.38799165  0.33190626  0.12182400    -0.01200
C1124       C  0.37997976  0.32910498  0.08959434     0.03800
C1125       C  0.30348738  0.25009815  0.09223598     0.38400
C1126       C  0.42508746  0.34756088  0.13068224     0.38400
C1127       C  0.40206716  0.35323576  0.06762083     0.36800
C1128       C  0.30746502  0.27066579  0.15640791     0.36800
N1129       N  0.41975615  0.37252808  0.05026562    -0.38000
N1130       N  0.28710696  0.25503139  0.17421296    -0.38000
N1131       N  0.45625042  0.35700560  0.13694062    -0.37400
N1132       N  0.28387954  0.22412240  0.08500294    -0.37400
C1133       C  0.38457360  0.17441912  0.35627898    -0.04100
C1134       C  0.40358942  0.20808000  0.36705696    -0.01200
C1135       C  0.40945211  0.21333607  0.39930418     0.03800
C1136       C  0.39330081  0.18618154  0.42118426    -0.04100
C1137       C  0.37699519  0.15094610  0.41014744    -0.01200
C1138       C  0.37481593  0.14426023  0.37764170     0.03800
C1139       C  0.41991065  0.23553501  0.34451125     0.38400
C1140       C  0.36452162  0.12085699  0.43211763     0.38400
C1141       C  0.36825833  0.10499081  0.36611166     0.36800
C1142       C  0.43232389  0.24666473  0.40947491     0.36800
N1143       N  0.36530540  0.07315932  0.35710509    -0.38000
N1144       N  0.45115608  0.27294336  0.41733462    -0.38000
N1145       N  0.35476235  0.09675505  0.44966514    -0.37400
N1146       N  0.43408332  0.25639233  0.32629034    -0.37400
C1147       C  0.38644230  0.17374850  0.14268163    -0.04100
C1148       C  0.37651970  0.14360609  0.12162425    -0.01200
C1149       C  0.37873021  0.15022994  0.08903650     0.03800
C1150       C  0.39527578  0.18532644  0.07753119    -0.04100
C1151       C  0.41172595  0.21231084  0.09901337    -0.01200
C1152       C  0.40566601  0.20726463  0.13139431     0.03800
C1153       C  0.36951525  0.10442857  0.13345853     0.38400
C1154       C  0.43502461  0.24525089  0.08822644     0.38400
C1155       C  0.42151456  0.23503422  0.15353155     0.36800
C1156       C  0.36587801  0.12026653  0.06741849     0.36800
N1157       N  0.43513884  0.25620619  0.17149427    -0.38000
N1158       N  0.35580623  0.09628022  0.05014013    -0.38000
N1159       N  0.45420148  0.27116100  0.07974636    -0.37400
N1160       N  0.36616599  0.07261931  0.14262447    -0.37400
O1161       O  0.41526216  0.21785441  0.53067855    -0.70500
O1162       O  0.38656074  0.28982209  0.96754419    -0.70700
O1163       O  0.38775016  0.28931101  0.53154678    -0.70600
O1164       O  0.41429688  0.21835289  0.96730691    -0.70600
O1165       O  0.35545963  0.19550016  0.96770508    -0.70600
O1166       O  0.32890017  0.26707592  0.53293493    -0.70600
O1167       O  0.32780736  0.26718938  0.96794270    -0.70500
O1168       O  0.35634445  0.19526191  0.53228855    -0.70700
V1169       V  0.39970677  0.25344527  0.49927590     1.35200
V1170       V  0.34315147  0.23164256  0.00020912     1.35200
C1171       C  0.38954643  0.19786099  0.54461234     0.78700
C1172       C  0.35379043  0.28759783  0.95447104     0.78800
C1173       C  0.35541228  0.28709949  0.54568438     0.78600
C1174       C  0.38826880  0.19839408  0.95425346     0.78600
O1175       O  0.45283559  0.48315147  0.96780491    -0.70500
O1176       O  0.48026238  0.05429772  0.53275083    -0.70700
O1177       O  0.48017151  0.05490965  0.96825542    -0.70600
O1178       O  0.45289566  0.48244264  0.53287944    -0.70600
O1179       O  0.26175661  0.46018508  0.53186515    -0.70600
O1180       O  0.28912662  0.03232295  0.96833883    -0.70600
O1181       O  0.28923663  0.03172493  0.53158130    -0.70500
O1182       O  0.26167236  0.46082713  0.96787911    -0.70700
V1183       V  0.46753180  0.01830671  0.00043107     1.35200
V1184       V  0.27419321  0.99663079  0.49993055     1.35200
C1185       C  0.22919769  0.46320400  0.95439023     0.78700
C1186       C  0.26340936  0.05176687  0.54521341     0.78800
C1187       C  0.26319280  0.05238737  0.95513705     0.78600
C1188       C  0.22924494  0.46225437  0.54577197     0.78600
C1189       C  0.46376686  0.12413145  0.74991313     0.31300
C1190       C  0.29347546  0.12773664  0.74983995     0.31300
C1191       C  0.48458112  0.10466539  0.72181294    -0.04900
C1192       C  0.48179623  0.16601738  0.74972212    -0.05700
C1193       C  0.48405543  0.10477665  0.77820624    -0.05600
C1194       C  0.27496178  0.10648021  0.72227020    -0.04900
C1195       C  0.27227653  0.16802247  0.74970896    -0.05700
C1196       C  0.27445336  0.10659793  0.77762120    -0.05600
C1197       C  0.28853327  0.09276766  0.69421475    -0.31000
N1198       N  0.25793914  0.08464633  0.67586384     0.15500
C1199       C  0.47468870  0.09060553  0.69253182    -0.31000
H1200       H  0.44574422  0.08749012  0.68317451     0.17500
C1201       C  0.28191265  0.20771894  0.74963316    -0.30000
N1202       N  0.24852523  0.22962709  0.74960564     0.14200
C1203       C  0.46792313  0.20430104  0.74962785    -0.30000
C1204       C  0.28761828  0.09259028  0.80559452    -0.30300
N1205       N  0.25678442  0.08419866  0.82409127     0.14700
H1206       H  0.31743294  0.09097251  0.81291491     0.17400
C1207       C  0.47374865  0.09046041  0.80757695    -0.30300
H1208       H  0.44465933  0.08738128  0.81707465     0.17400
H1209       H  0.43768765  0.21293039  0.74964677     0.17400
H1210       H  0.31842962  0.09112919  0.68677014     0.17400
H1211       H  0.31107292  0.21949023  0.74965644     0.17400
C1212       C  0.28042840  0.37709940  0.74999286     0.31300
C1213       C  0.45078789  0.37322241  0.75004116     0.31300
C1214       C  0.26023148  0.39682058  0.72207804    -0.04900
C1215       C  0.26249914  0.33514259  0.75004314    -0.05700
C1216       C  0.25964380  0.39677054  0.77785211    -0.05600
C1217       C  0.47001688  0.39445491  0.72189961    -0.04900
C1218       C  0.47204005  0.33302048  0.75003011    -0.05700
C1219       C  0.46943052  0.39441060  0.77817034    -0.05600
C1220       C  0.45787940  0.41131151  0.69426261    -0.31000
N1221       N  0.23935066  0.42410246  0.67752175     0.15500
C1222       C  0.27141024  0.41598278  0.69501533    -0.31000
H1223       H  0.30107313  0.42244056  0.68862632     0.17500
C1224       C  0.46246864  0.29331645  0.74980796    -0.30000
N1225       N  0.24587683  0.27146606  0.74973848     0.14200
C1226       C  0.27643814  0.29685444  0.74988294    -0.30000
C1227       C  0.45687215  0.41152874  0.80577449    -0.30300
N1228       N  0.23813089  0.42437953  0.82231248     0.14700
H1229       H  0.42711246  0.41234629  0.81410329     0.17400
C1230       C  0.27037222  0.41624689  0.80461116    -0.30300
H1231       H  0.29992864  0.42309772  0.81056083     0.17400
H1232       H  0.30668477  0.28826173  0.74982758     0.17400
H1233       H  0.42825907  0.41197668  0.68602816     0.17400
H1234       H  0.43332560  0.28150446  0.74968287     0.17400
C1235       C  0.32577047  0.37786848  0.74999736     0.31300
C1236       C  0.40542116  0.37393151  0.74995434     0.31300
C1237       C  0.34492732  0.35677556  0.72188065    -0.04900
C1238       C  0.34703522  0.41803507  0.74991529    -0.05700
C1239       C  0.34439486  0.35662282  0.77815574    -0.05600
C1240       C  0.38514208  0.35429876  0.72203630    -0.04900
C1241       C  0.38749551  0.41586860  0.74988435    -0.05700
C1242       C  0.38463761  0.35433994  0.77796175    -0.05600
C1243       C  0.39613577  0.33543238  0.69484180    -0.30400
N1244       N  0.36399530  0.32774204  0.67729919     0.15500
C1245       C  0.33264481  0.34048113  0.69413596    -0.31000
H1246       H  0.30301428  0.34014637  0.68592639     0.17500
C1247       C  0.40145778  0.45411320  0.74992136    -0.30000
N1248       N  0.37089957  0.47951977  0.74999104     0.14200
C1249       C  0.33748397  0.45773407  0.74997624    -0.30000
C1250       C  0.39531104  0.33586997  0.80531778    -0.30300
N1251       N  0.36291662  0.32794373  0.82291784     0.14700
H1252       H  0.42486912  0.32983007  0.81189607     0.17400
C1253       C  0.33171403  0.34019175  0.80603030    -0.30300
H1254       H  0.30192736  0.33943992  0.81432964     0.17400
H1255       H  0.30833448  0.46959529  0.75005350     0.17400
H1256       H  0.42575814  0.32883653  0.68842508     0.17400
H1257       H  0.43169138  0.46266976  0.74994014     0.17400
C1258       C  0.33876285  0.12679181  0.74978878     0.31300
C1259       C  0.41848376  0.12317768  0.74978770     0.31300
C1260       C  0.35901199  0.14635122  0.77781561    -0.04900
C1261       C  0.35682298  0.08492008  0.74998739    -0.05700
C1262       C  0.35959137  0.14614451  0.72153467    -0.05600
C1263       C  0.39939807  0.14450396  0.77729867    -0.04900
C1264       C  0.39730971  0.08289648  0.74998744    -0.05700
C1265       C  0.39998231  0.14431494  0.72201194    -0.05600
C1266       C  0.41250979  0.15913924  0.80497056    -0.31000
N1267       N  0.38160569  0.16790790  0.82322350     0.15500
C1268       C  0.34861204  0.16132703  0.80682465    -0.31000
H1269       H  0.31950412  0.16454425  0.81624832     0.17500
C1270       C  0.40695174  0.04319921  0.75005017    -0.30000
N1271       N  0.37356258  0.02133485  0.75009123     0.14200
C1272       C  0.34294978  0.04666786  0.75007780    -0.30000
C1273       C  0.41358859  0.15889238  0.69416080    -0.30300
N1274       N  0.38300650  0.16751422  0.67586998     0.14700
H1275       H  0.44351660  0.16070786  0.68674222     0.17400
C1276       C  0.34973439  0.16106542  0.69244681    -0.30300
H1277       H  0.32078591  0.16437933  0.68310895     0.17400
H1278       H  0.31272749  0.03806867  0.75005902     0.17400
H1279       H  0.44229985  0.16088405  0.81231583     0.17400
H1280       H  0.43612536  0.03139357  0.74999208     0.17400
C1281       C  0.23666439  0.43661006  0.85514854    -0.04100
C1282       C  0.26208475  0.41991461  0.87746501    -0.01200
C1283       C  0.25361096  0.42181165  0.90977452     0.03800
C1284       C  0.22564850  0.44871101  0.92123350    -0.04100
C1285       C  0.45245437  0.46909347  0.89896418    -0.01200
C1286       C  0.45664115  0.46146516  0.86636720     0.03800
C1287       C  0.29988917  0.40580841  0.86824514     0.38400
C1288       C  0.42646720  0.50026248  0.90893267     0.38400
C1289       C  0.43241375  0.48221282  0.84413698     0.36800
C1290       C  0.27556151  0.39725015  0.93122353     0.36800
N1291       N  0.41304323  0.49876924  0.82641570    -0.38000
N1292       N  0.29312831  0.37769691  0.94823022    -0.38000
N1293       N  0.40628005  0.52565278  0.91676834    -0.37400
N1294       N  0.33151526  0.39781983  0.86166211    -0.37400
C1295       C  0.23794773  0.43635738  0.64472965    -0.04100
C1296       C  0.26305849  0.41935107  0.62208854    -0.01200
C1297       C  0.25406078  0.42083757  0.58997709     0.03800
C1298       C  0.22573082  0.44740141  0.57889927    -0.04100
C1299       C  0.45238462  0.46751348  0.60141462    -0.01200
C1300       C  0.45761931  0.46089297  0.63396511     0.03800
C1301       C  0.30080078  0.40486006  0.63069610     0.38400
C1302       C  0.42452374  0.49691664  0.59160406     0.38400
C1303       C  0.43398180  0.48220601  0.65653156     0.36800
C1304       C  0.27541965  0.39584502  0.56827689     0.36800
N1305       N  0.41510755  0.49923662  0.67450797    -0.38000
N1306       N  0.29236826  0.37581818  0.55106067    -0.38000
N1307       N  0.40267133  0.52079957  0.58385451    -0.37400
N1308       N  0.33236559  0.39634356  0.63664550    -0.37400
C1309       C  0.26853753  0.06515680  0.92218748    -0.04100
C1310       C  0.28524785  0.03851998  0.90031149    -0.01200
C1311       C  0.27950461  0.04406138  0.86804034     0.03800
C1312       C  0.25990398  0.07749941  0.85721714    -0.04100
C1313       C  0.49924595  0.10712034  0.87867245    -0.01200
C1314       C  0.50151296  0.10014083  0.91118025     0.03800
C1315       C  0.30817233  0.00517548  0.91057752     0.38400
C1316       C  0.49133828  0.14623904  0.86727299     0.38400
C1317       C  0.48796664  0.12950257  0.93325933     0.36800
C1318       C  0.29583394  0.01670837  0.84555673     0.36800
N1319       N  0.47731848  0.15282322  0.95104460    -0.38000
N1320       N  0.30982869  0.99579426  0.82737854    -0.38000
N1321       N  0.48729477  0.17806449  0.85840655    -0.37400
N1322       N  0.32692839  0.47887679  0.91867251    -0.37400
C1323       C  0.26919590  0.06477709  0.57789793    -0.04100
C1324       C  0.25324130  0.10037373  0.58878038    -0.01200
C1325       C  0.25132980  0.10771534  0.62125095     0.03800
C1326       C  0.26134729  0.07797178  0.64278688    -0.04100
C1327       C  0.53012372  0.04402677  0.63204028    -0.01200
C1328       C  0.53549558  0.03801842  0.59975809     0.03800
C1329       C  0.24052978  0.12993128  0.56659619     0.38400
C1330       C  0.54587699  0.01657741  0.65461079     0.38400
C1331       C  0.55764103  0.00411490  0.58947096     0.36800
C1332       C  0.24418883  0.14705899  0.63245340     0.36800
N1333       N  0.57586042  0.47736358  0.58139888    -0.38000
N1334       N  0.24065310  0.17897525  0.64117358    -0.38000
N1335       N  0.55935554  0.99568264  0.67295546    -0.37400
N1336       N  0.23059462  0.15346438  0.54875378    -0.37400
C1337       C  0.34941477  0.30286673  0.92161506    -0.04100
C1338       C  0.37612910  0.33123182  0.91057209    -0.01200
C1339       C  0.38504947  0.33382898  0.87839394     0.03800
C1340       C  0.36100283  0.31600301  0.85580139    -0.04100
C1341       C  0.33191480  0.28979053  0.86656727    -0.01200
C1342       C  0.32722291  0.28194853  0.89910648     0.03800
C1343       C  0.39594922  0.35698407  0.93234439     0.38400
C1344       C  0.30975729  0.26762228  0.84390991     0.38400
C1345       C  0.30159745  0.25030608  0.90880397     0.36800
C1346       C  0.42231066  0.34955513  0.86963432     0.36800
N1347       N  0.28149814  0.22466296  0.91632804    -0.38000
N1348       N  0.45375409  0.35870491  0.86357141    -0.38000
N1349       N  0.29226293  0.24978683  0.82579774    -0.37400
N1350       N  0.41158409  0.37777254  0.94954912    -0.37400
C1351       C  0.35209610  0.30194256  0.57876043    -0.04100
C1352       C  0.32885338  0.28191512  0.60148042    -0.01200
C1353       C  0.33255707  0.29039333  0.63387605     0.03800
C1354       C  0.36249782  0.31544801  0.64453153    -0.04100
C1355       C  0.38795911  0.33191768  0.62181069    -0.01200
C1356       C  0.37994574  0.32910371  0.58958207     0.03800
C1357       C  0.30348316  0.25006913  0.59224172     0.38400
C1358       C  0.42504359  0.34760272  0.63066335     0.38400
C1359       C  0.40202369  0.35323593  0.56760285     0.36800
C1360       C  0.30745403  0.27066098  0.65640979     0.36800
N1361       N  0.41970725  0.37252956  0.55024486    -0.38000
N1362       N  0.28709865  0.25502672  0.67421692    -0.38000
N1363       N  0.45620014  0.35707504  0.63691472    -0.37400
N1364       N  0.28388454  0.22408456  0.58501262    -0.37400
C1365       C  0.38457078  0.17442462  0.85628338    -0.04100
C1366       C  0.40359728  0.20808037  0.86705970    -0.01200
C1367       C  0.40945901  0.21333776  0.89930677     0.03800
C1368       C  0.39329350  0.18619297  0.92118768    -0.04100
C1369       C  0.37697430  0.15096300  0.91015285    -0.01200
C1370       C  0.37479969  0.14427242  0.87764793     0.03800
C1371       C  0.41992701  0.23552949  0.84451320     0.38400
C1372       C  0.36448110  0.12088292  0.93212388     0.38400
C1373       C  0.36823741  0.10500195  0.86612206     0.36800
C1374       C  0.43234276  0.24665832  0.90947700     0.36800
N1375       N  0.36528280  0.07316837  0.85712066    -0.38000
N1376       N  0.45118364  0.27292996  0.91733797    -0.38000
N1377       N  0.35470522  0.09678673  0.94967050    -0.37400
N1378       N  0.43410507  0.25638317  0.82629225    -0.37400
C1379       C  0.38645041  0.17375364  0.64268842    -0.04100
C1380       C  0.37653780  0.14360456  0.62163399    -0.01200
C1381       C  0.37875047  0.15022233  0.58904545     0.03800
C1382       C  0.39528644  0.18532156  0.57753644    -0.04100
C1383       C  0.41172671  0.21231535  0.59901629    -0.01200
C1384       C  0.40566716  0.20727243  0.63139795     0.03800
C1385       C  0.36953843  0.10442835  0.63347320     0.38400
C1386       C  0.43501450  0.24526185  0.58822620     0.38400
C1387       C  0.42151150  0.23504728  0.65353279     0.36800
C1388       C  0.36590801  0.12025166  0.56743018     0.36800
N1389       N  0.43513404  0.25622323  0.67149335    -0.38000
N1390       N  0.35584383  0.09626083  0.55015291    -0.38000
N1391       N  0.45418285  0.27117732  0.57974390    -0.37400
N1392       N  0.36619201  0.07262108  0.64264431    -0.37400
O1393       O  0.41525976  0.71786285  0.03067757    -0.70500
O1394       O  0.38653900  0.78980090  0.46754442    -0.70700
O1395       O  0.38777241  0.78932954  0.03154849    -0.70600
O1396       O  0.41429936  0.71834215  0.46730495    -0.70600
O1397       O  0.35547056  0.69546741  0.46770647    -0.70600
O1398       O  0.32891559  0.76711296  0.03293551    -0.70600
O1399       O  0.32779371  0.76714687  0.46794126    -0.70500
O1400       O  0.35633488  0.69528906  0.03228516    -0.70700
V1401       V  0.39971766  0.75346098  0.99927619     1.35200
V1402       V  0.34315047  0.73160798  0.50020956     1.35200
C1403       C  0.38953800  0.69787456  0.04460867     0.78700
C1404       C  0.35376918  0.78756715  0.45447168     0.78800
C1405       C  0.35543436  0.78712514  0.04568690     0.78600
C1406       C  0.38827704  0.69837505  0.45425204     0.78600
O1407       O  0.45287576  0.98316441  0.46780240    -0.70500
O1408       O  0.48023618  0.55428118  0.03275237    -0.70700
O1409       O  0.48019936  0.55492550  0.46825358    -0.70600
O1410       O  0.45286142  0.98243031  0.03288224    -0.70600
O1411       O  0.26172134  0.96016605  0.03186435    -0.70600
O1412       O  0.28915540  0.53234329  0.46833567    -0.70600
O1413       O  0.28920773  0.53170017  0.03158025    -0.70500
O1414       O  0.26171380  0.96084698  0.46787639    -0.70700
V1415       V  0.46756311  0.51832111  0.50042892     1.35200
V1416       V  0.27415744  0.49660885  0.99993153     1.35200
C1417       C  0.22923867  0.96322039  0.45438715     0.78700
C1418       C  0.26338477  0.55174642  0.04521273     0.78800
C1419       C  0.26321895  0.55240481  0.45513394     0.78600
C1420       C  0.22921135  0.96223935  0.04577280     0.78600
C1421       C  0.46376591  0.62412967  0.24990611     0.31300
C1422       C  0.29347447  0.62773393  0.24983377     0.31300
C1423       C  0.48458054  0.60466260  0.22180653    -0.04900
C1424       C  0.48179560  0.66601520  0.24971411    -0.05700
C1425       C  0.48405408  0.60477582  0.27819991    -0.05600
C1426       C  0.27496113  0.60647640  0.22226418    -0.04900
C1427       C  0.27227589  0.66801984  0.24970166    -0.05700
C1428       C  0.27445181  0.60659661  0.27761502    -0.05600
C1429       C  0.28853278  0.59275846  0.19421025    -0.31000
N1430       N  0.25793839  0.58463588  0.17585986     0.15500
C1431       C  0.47468837  0.59059858  0.19252684    -0.31000
H1432       H  0.44574390  0.58748233  0.18316950     0.17500
C1433       C  0.28191243  0.70771610  0.24962752    -0.30000
N1434       N  0.24852513  0.72962437  0.24960020     0.14200
C1435       C  0.46792279  0.70429876  0.24962066    -0.30000
C1436       C  0.28761646  0.59259301  0.30558939    -0.30300
N1437       N  0.25678274  0.58420479  0.32408702     0.14700
H1438       H  0.31743134  0.59097547  0.31291019     0.17400
C1439       C  0.47374714  0.59046392  0.30757208    -0.30300
H1440       H  0.44465811  0.58738584  0.31707001     0.17400
H1441       H  0.43768735  0.71292837  0.24963955     0.17400
H1442       H  0.31842929  0.59111730  0.18676640     0.17400
H1443       H  0.31107264  0.71948710  0.24965286     0.17400
C1444       C  0.28042961  0.87709552  0.24999018     0.31300
C1445       C  0.45078890  0.87321943  0.25004838     0.31300
C1446       C  0.26022918  0.89681435  0.22207626    -0.04900
C1447       C  0.26249994  0.83513905  0.25004324    -0.05700
C1448       C  0.25964921  0.89676875  0.27784974    -0.05600
C1449       C  0.47001374  0.89444984  0.22190344    -0.04900
C1450       C  0.47204070  0.83301738  0.25003577    -0.05700
C1451       C  0.46943666  0.89440887  0.27817397    -0.05600
C1452       C  0.45787128  0.91130184  0.19426623    -0.31000
N1453       N  0.23934022  0.92408924  0.17752002     0.15500
C1454       C  0.27140344  0.91597042  0.19500967    -0.31000
H1455       H  0.30106579  0.92242359  0.18861496     0.17500
C1456       C  0.46246891  0.79331364  0.24981251    -0.30000
N1457       N  0.24587701  0.77146313  0.24973648     0.14200
C1458       C  0.27643862  0.79685108  0.24987856    -0.30000
C1459       C  0.45688492  0.91153139  0.30577799    -0.30300
N1460       N  0.23814692  0.92438498  0.32230946     0.14700
H1461       H  0.42712671  0.91235099  0.31411033     0.17400
C1462       C  0.27038377  0.91625009  0.30460421    -0.30300
H1463       H  0.29994145  0.92310445  0.31054740     0.17400
H1464       H  0.30668529  0.78825818  0.24981782     0.17400
H1465       H  0.42824956  0.91196567  0.18603485     0.17400
H1466       H  0.43332578  0.78150186  0.24969011     0.17400
C1467       C  0.32577149  0.87786548  0.24999711     0.31300
C1468       C  0.40542206  0.87392907  0.24996429     0.31300
C1469       C  0.34493327  0.85677084  0.22188445    -0.04900
C1470       C  0.34703600  0.91803243  0.24991508    -0.05700
C1471       C  0.34439083  0.85662193  0.27815921    -0.05600
C1472       C  0.38514745  0.85429272  0.22204629    -0.04900
C1473       C  0.38749631  0.91586618  0.24988941    -0.05700
C1474       C  0.38463401  0.85434100  0.27797163    -0.05600
C1475       C  0.39614736  0.83542262  0.19485558    -0.30400
N1476       N  0.36401165  0.82773479  0.17730742     0.15500
C1477       C  0.33265735  0.84047709  0.19413815    -0.31000
H1478       H  0.30302900  0.84014514  0.18592348     0.17500
C1479       C  0.40145832  0.95411094  0.24992563    -0.30000
N1480       N  0.37090006  0.97951748  0.24998982     0.14200
C1481       C  0.33748457  0.95773152  0.24997187    -0.30000
C1482       C  0.39530076  0.83587461  0.30533131    -0.30300
N1483       N  0.36290140  0.82794498  0.32292516     0.14700
H1484       H  0.42485764  0.82984036  0.31191713     0.17400
C1485       C  0.33170303  0.84018960  0.30603157    -0.30300
H1486       H  0.30191402  0.83943439  0.31432558     0.17400
H1487       H  0.30833526  0.96959257  0.25004444     0.17400
H1488       H  0.42577077  0.82882134  0.18844600     0.17400
H1489       H  0.43169191  0.96266763  0.24994799     0.17400
C1490       C  0.33876169  0.62678938  0.24978385     0.31300
C1491       C  0.41848266  0.62317612  0.24978131     0.31300
C1492       C  0.35901126  0.64635175  0.27780941    -0.04900
C1493       C  0.35682220  0.58491793  0.24998448    -0.05700
C1494       C  0.35958897  0.64613940  0.22152850    -0.05600
C1495       C  0.39939742  0.64450537  0.27729146    -0.04900
C1496       C  0.39730893  0.58289464  0.24998393    -0.05700
C1497       C  0.39997997  0.64430997  0.22200450    -0.05600
C1498       C  0.41250963  0.65914020  0.30496350    -0.31000
N1499       N  0.38160611  0.66790590  0.32321814     0.15500
C1500       C  0.34861215  0.66132535  0.30681964    -0.31000
H1501       H  0.31950453  0.66454051  0.31624450     0.17500
C1502       C  0.40695113  0.54319727  0.25004741    -0.30000
N1503       N  0.37356197  0.52133274  0.25008956     0.14200
C1504       C  0.34294923  0.54666569  0.25007595    -0.30000
C1505       C  0.41358414  0.65888305  0.19415136    -0.30300
N1506       N  0.38300039  0.66750295  0.17586164     0.14700
H1507       H  0.44351166  0.66069845  0.18673117     0.17400
C1508       C  0.34972954  0.66105700  0.19244039    -0.30300
H1509       H  0.32078042  0.66437170  0.18310415     0.17400
H1510       H  0.31272672  0.53806638  0.25005772     0.17400
H1511       H  0.44229971  0.66088569  0.31230759     0.17400
H1512       H  0.43612467  0.53139176  0.24998855     0.17400
C1513       C  0.23668988  0.93662164  0.35514412    -0.04100
C1514       C  0.26211759  0.91993101  0.37745766    -0.01200
C1515       C  0.25365083  0.92183013  0.40976838     0.03800
C1516       C  0.22568822  0.94872729  0.42123009    -0.04100
C1517       C  0.45248940  0.96910633  0.39896304    -0.01200
C1518       C  0.45666904  0.96147536  0.36636606     0.03800
C1519       C  0.29992428  0.90583524  0.36823313     0.38400
C1520       C  0.42649962  0.00027185  0.40893336     0.38400
C1521       C  0.43243180  0.98221537  0.34413827     0.36800
C1522       C  0.27560473  0.89726976  0.43121551     0.36800
N1523       N  0.41305296  0.99876392  0.32641829    -0.38000
N1524       N  0.29317175  0.87771626  0.44822178    -0.38000
N1525       N  0.40630948  0.02565897  0.41677039    -0.37400
N1526       N  0.33155128  0.89785764  0.36164380    -0.37400
C1527       C  0.23792963  0.93634164  0.14472789    -0.04100
C1528       C  0.26303465  0.91933343  0.12208364    -0.01200
C1529       C  0.25403013  0.92082032  0.08997381     0.03800
C1530       C  0.22570094  0.94738769  0.07889999    -0.04100
C1531       C  0.45236124  0.96750388  0.10141836    -0.01200
C1532       C  0.45759992  0.96088025  0.13396783     0.03800
C1533       C  0.30077606  0.90483442  0.13068565     0.38400
C1534       C  0.42450699  0.99691593  0.09161183     0.38400
C1535       C  0.43396501  0.98219197  0.15653694     0.36800
C1536       C  0.27538446  0.89582773  0.06827045     0.36800
N1537       N  0.41509098  0.99922097  0.17451451    -0.38000
N1538       N  0.29233050  0.87580254  0.05105128    -0.38000
N1539       N  0.40266025  0.02080627  0.08386611    -0.37400
N1540       N  0.33234070  0.89630884  0.13662761    -0.37400
C1541       C  0.26855841  0.56517312  0.42218306    -0.04100
C1542       C  0.28526538  0.53853602  0.40030574    -0.01200
C1543       C  0.27951199  0.54407300  0.36803527     0.03800
C1544       C  0.25990460  0.57750732  0.35721302    -0.04100
C1545       C  0.49924779  0.60712912  0.37866812    -0.01200
C1546       C  0.50152639  0.60015409  0.41117608     0.03800
C1547       C  0.30819502  0.50519455  0.41056974     0.38400
C1548       C  0.49132935  0.64624475  0.36726722     0.38400
C1549       C  0.48798308  0.62951607  0.43325611     0.36800
C1550       C  0.29583512  0.51671826  0.34555004     0.36800
N1551       N  0.47733816  0.65283546  0.45104366    -0.38000
N1552       N  0.30982268  0.49580387  0.32736848    -0.38000
N1553       N  0.48727753  0.67806813  0.35839870    -0.37400
N1554       N  0.32695951  0.97890099  0.41866307    -0.37400
C1555       C  0.26917838  0.56475775  0.07789522    -0.04100
C1556       C  0.25323202  0.60035807  0.08877687    -0.01200
C1557       C  0.25132835  0.60770315  0.12124688     0.03800
C1558       C  0.26134468  0.57795953  0.14278323    -0.04100
C1559       C  0.53011324  0.54400912  0.13203678    -0.01200
C1560       C  0.53547858  0.53799728  0.09975451     0.03800
C1561       C  0.24052009  0.62991492  0.06659210     0.38400
C1562       C  0.54586563  0.51655866  0.15460665     0.38400
C1563       C  0.55761995  0.50409112  0.08946627     0.36800
C1564       C  0.24419290  0.64704871  0.13244750     0.36800
N1565       N  0.57584036  0.97734155  0.08139343    -0.38000
N1566       N  0.24066002  0.67896635  0.14116523    -0.38000
N1567       N  0.55934454  0.49566202  0.17294971    -0.37400
N1568       N  0.23058429  0.65344680  0.04874890    -0.37400
C1569       C  0.34938751  0.80284501  0.42161917    -0.04100
C1570       C  0.37609234  0.83122313  0.41058336    -0.01200
C1571       C  0.38501324  0.83383429  0.37840632     0.03800
C1572       C  0.36097835  0.81600330  0.35580839    -0.04100
C1573       C  0.33189632  0.78977930  0.36656769    -0.01200
C1574       C  0.32720293  0.78192747  0.39910563     0.03800
C1575       C  0.39590892  0.85697021  0.43236225     0.38400
C1576       C  0.30974833  0.76760929  0.34390533     0.38400
C1577       C  0.30158531  0.75027561  0.40879666     0.36800
C1578       C  0.42226135  0.84959480  0.36965222     0.36800
N1579       N  0.28149194  0.72462545  0.41631561    -0.38000
N1580       N  0.45369758  0.85877723  0.36359843    -0.38000
N1581       N  0.29226139  0.74977128  0.32579007    -0.37400
N1582       N  0.41154495  0.87775273  0.44957090    -0.37400
C1583       C  0.35212327  0.80195879  0.07876600    -0.04100
C1584       C  0.32887152  0.78193263  0.10148097    -0.01200
C1585       C  0.33257593  0.79039917  0.13387811     0.03800
C1586       C  0.36252247  0.81544198  0.14453967    -0.04100
C1587       C  0.38799520  0.83190576  0.12182428    -0.01200
C1588       C  0.37998357  0.82910466  0.08959455     0.03800
C1589       C  0.30348926  0.75009939  0.09223580     0.38400
C1590       C  0.42509107  0.84756015  0.13068271     0.38400
C1591       C  0.40207181  0.85323496  0.06762114     0.36800
C1592       C  0.30746798  0.77066546  0.15640775     0.36800
N1593       N  0.41976163  0.87252681  0.05026613    -0.38000
N1594       N  0.28710995  0.75503078  0.17421268    -0.38000
N1595       N  0.45625412  0.85700465  0.13694109    -0.37400
N1596       N  0.28388046  0.72412435  0.08500290    -0.37400
C1597       C  0.38457244  0.67441891  0.35627876    -0.04100
C1598       C  0.40358870  0.70807963  0.36705661    -0.01200
C1599       C  0.40945252  0.71333540  0.39930374     0.03800
C1600       C  0.39330157  0.68618089  0.42118400    -0.04100
C1601       C  0.37699495  0.65094585  0.41014731    -0.01200
C1602       C  0.37481483  0.64426013  0.37764161     0.03800
C1603       C  0.41990956  0.73553464  0.34451078     0.38400
C1604       C  0.36452117  0.62085693  0.43211763     0.38400
C1605       C  0.36825666  0.60499075  0.36611176     0.36800
C1606       C  0.43232531  0.74666353  0.40947421     0.36800
N1607       N  0.36530338  0.57315917  0.35710552    -0.38000
N1608       N  0.45115813  0.77294175  0.41733386    -0.38000
N1609       N  0.35476180  0.59675529  0.44966535    -0.37400
N1610       N  0.43408198  0.75639203  0.32628981    -0.37400
C1611       C  0.38644158  0.67374757  0.14268083    -0.04100
C1612       C  0.37651899  0.64360533  0.12162324    -0.01200
C1613       C  0.37872994  0.65022931  0.08903550     0.03800
C1614       C  0.39527564  0.68532584  0.07753043    -0.04100
C1615       C  0.41172591  0.71230991  0.09901282    -0.01200
C1616       C  0.40566556  0.70726367  0.13139369     0.03800
C1617       C  0.36951416  0.60442778  0.13345733     0.38400
C1618       C  0.43502527  0.74524957  0.08822611     0.38400
C1619       C  0.42151402  0.73503327  0.15353102     0.36800
C1620       C  0.36587834  0.62026595  0.06741724     0.36800
N1621       N  0.43513829  0.75620547  0.17149357    -0.38000
N1622       N  0.35580714  0.59627983  0.05013850    -0.38000
N1623       N  0.45420274  0.77115926  0.07974613    -0.37400
N1624       N  0.36616457  0.57261852  0.14262313    -0.37400
O1625       O  0.41526413  0.71785374  0.53067812    -0.70500
O1626       O  0.38656270  0.78982281  0.96754395    -0.70700
O1627       O  0.38775190  0.78931010  0.53154672    -0.70600
O1628       O  0.41429703  0.71835291  0.96730641    -0.70600
O1629       O  0.35545904  0.69550210  0.96770432    -0.70600
O1630       O  0.32890164  0.76707562  0.53293434    -0.70600
O1631       O  0.32780858  0.76719204  0.96794310    -0.70500
O1632       O  0.35634618  0.69526179  0.53228863    -0.70700
V1633       V  0.39970846  0.75344468  0.49927560     1.35200
V1634       V  0.34315209  0.73164419  0.00020889     1.35200
C1635       C  0.38954835  0.69786061  0.54461213     0.78700
C1636       C  0.35379207  0.78759969  0.95447121     0.78800
C1637       C  0.35541379  0.78709887  0.54568403     0.78600
C1638       C  0.38826836  0.69839508  0.95425279     0.78600
O1639       O  0.45283768  0.98315053  0.96780495    -0.70500
O1640       O  0.48026192  0.55429650  0.53275111    -0.70700
O1641       O  0.48017057  0.55491011  0.96825480    -0.70600
O1642       O  0.45289708  0.98244345  0.53287883    -0.70600
O1643       O  0.26175836  0.96018565  0.53186440    -0.70600
O1644       O  0.28912517  0.53232183  0.96833845    -0.70600
O1645       O  0.28923578  0.53172418  0.53158098    -0.70500
O1646       O  0.26167489  0.96082782  0.96787910    -0.70700
V1647       V  0.46753031  0.51830778  0.00043074     1.35200
V1648       V  0.27419158  0.49662955  0.49993084     1.35200
C1649       C  0.22920034  0.96320440  0.95439002     0.78700
C1650       C  0.26340890  0.55176641  0.54521331     0.78800
C1651       C  0.26319161  0.55238655  0.95513667     0.78600
C1652       C  0.22924669  0.96225464  0.54577124     0.78600
C1653       C  0.46376773  0.62413127  0.74991266     0.31300
C1654       C  0.29347629  0.62773688  0.74983963     0.31300
C1655       C  0.48458203  0.60466494  0.72181254    -0.04900
C1656       C  0.48179703  0.66601722  0.74972140    -0.05700
C1657       C  0.48405639  0.60477682  0.77820586    -0.05600
C1658       C  0.27496276  0.60648014  0.72226994    -0.04900
C1659       C  0.27227725  0.66802262  0.74970851    -0.05700
C1660       C  0.27445416  0.60659842  0.77762100    -0.05600
C1661       C  0.28853442  0.59276733  0.69421458    -0.31000
N1662       N  0.25794036  0.58464571  0.67586368     0.15500
C1663       C  0.47468977  0.59060493  0.69253140    -0.31000
H1664       H  0.44574532  0.58748952  0.68317400     0.17500
C1665       C  0.28191332  0.70771907  0.74963311    -0.30000
N1666       N  0.24852592  0.72962720  0.74960562     0.14200
C1667       C  0.46792391  0.70430088  0.74962721    -0.30000
C1668       C  0.28761900  0.59259110  0.80559441    -0.30300
N1669       N  0.25678520  0.58419920  0.82409106     0.14700
H1670       H  0.31743394  0.59097354  0.81291496     0.17400
C1671       C  0.47374966  0.59046058  0.80757653    -0.30300
H1672       H  0.44466038  0.58738129  0.81707423     0.17400
H1673       H  0.43768845  0.71293024  0.74964618     0.17400
H1674       H  0.31843069  0.59112893  0.68677004     0.17400
H1675       H  0.31107367  0.71949037  0.74965666     0.17400
C1676       C  0.28042932  0.87709924  0.74999237     0.31300
C1677       C  0.45078870  0.87322225  0.75004062     0.31300
C1678       C  0.26023240  0.89682032  0.72207754    -0.04900
C1679       C  0.26249996  0.83514257  0.75004285    -0.05700
C1680       C  0.25964492  0.89677054  0.77785159    -0.05600
C1681       C  0.47001763  0.89445474  0.72189901    -0.04900
C1682       C  0.47204084  0.83302032  0.75002948    -0.05700
C1683       C  0.46943142  0.89441034  0.77816985    -0.05600
C1684       C  0.45788008  0.91131120  0.69426194    -0.31000
N1685       N  0.23935170  0.92410222  0.67752119     0.15500
C1686       C  0.27141131  0.91598241  0.69501479    -0.31000
H1687       H  0.30107390  0.92244008  0.68862592     0.17500
C1688       C  0.46246941  0.79331629  0.74980747    -0.30000
N1689       N  0.24587753  0.77146616  0.74973847     0.14200
C1690       C  0.27643889  0.79685446  0.74988272    -0.30000
C1691       C  0.45687327  0.91152782  0.80577433    -0.30300
N1692       N  0.23813257  0.92437918  0.82231221     0.14700
H1693       H  0.42711354  0.91234519  0.81410331     0.17400
C1694       C  0.27037369  0.91624659  0.80461067    -0.30300
H1695       H  0.29993011  0.92309737  0.81056007     0.17400
H1696       H  0.30668554  0.78826170  0.74982723     0.17400
H1697       H  0.42825973  0.91197624  0.68602751     0.17400
H1698       H  0.43332637  0.78150427  0.74968247     0.17400
C1699       C  0.32577133  0.87786814  0.74999681     0.31300
C1700       C  0.40542198  0.87393133  0.74995385     0.31300
C1701       C  0.34492818  0.85677489  0.72188025    -0.04900
C1702       C  0.34703597  0.91803474  0.74991442    -0.05700
C1703       C  0.34439571  0.85662291  0.77815541    -0.05600
C1704       C  0.38514294  0.85429818  0.72203595    -0.04900
C1705       C  0.38749625  0.91586842  0.74988354    -0.05700
C1706       C  0.38463845  0.85434007  0.77796143    -0.05600
C1707       C  0.39613674  0.83543170  0.69484150    -0.30400
N1708       N  0.36399632  0.82774115  0.67729888     0.15500
C1709       C  0.33264576  0.84048025  0.69413557    -0.31000
H1710       H  0.30301526  0.84014540  0.68592592     0.17500
C1711       C  0.40145830  0.95411315  0.74992029    -0.30000
N1712       N  0.37089990  0.97951958  0.74998983     0.14200
C1713       C  0.33748445  0.95773366  0.74997509    -0.30000
C1714       C  0.39531196  0.83587069  0.80531771    -0.30300
N1715       N  0.36291756  0.82794489  0.82291795     0.14700
H1716       H  0.42486992  0.82983077  0.81189593     0.17400
C1717       C  0.33171493  0.84019253  0.80603028    -0.30300
H1718       H  0.30192837  0.83944091  0.81432970     0.17400
H1719       H  0.30833503  0.96959466  0.75005233     0.17400
H1720       H  0.42575916  0.82883603  0.68842476     0.17400
H1721       H  0.43169180  0.96266989  0.74993910     0.17400
C1722       C  0.33876368  0.62679208  0.74978848     0.31300
C1723       C  0.41848460  0.62317753  0.74978744     0.31300
C1724       C  0.35901295  0.64635196  0.77781502    -0.04900
C1725       C  0.35682360  0.58492031  0.74998764    -0.05700
C1726       C  0.35959225  0.64614413  0.72153415    -0.05600
C1727       C  0.39939905  0.64450445  0.77729815    -0.04900
C1728       C  0.39731032  0.58289645  0.74998777    -0.05700
C1729       C  0.39998318  0.64431432  0.72201144    -0.05600
C1730       C  0.41251084  0.65913957  0.80497009    -0.31000
N1731       N  0.38160665  0.66790849  0.82322290     0.15500
C1732       C  0.34861305  0.66132788  0.80682398    -0.31000
H1733       H  0.31950500  0.66454522  0.81624763     0.17500
C1734       C  0.40695200  0.54319910  0.75005098    -0.30000
N1735       N  0.37356266  0.52133502  0.75009231     0.14200
C1736       C  0.34295012  0.54666822  0.75007853    -0.30000
C1737       C  0.41358955  0.65889180  0.69416038    -0.30300
N1738       N  0.38300755  0.66751394  0.67586958     0.14700
H1739       H  0.44351766  0.66070727  0.68674183     0.17400
C1740       C  0.34973531  0.66106531  0.69244635    -0.30300
H1741       H  0.32078708  0.66437956  0.68310857     0.17400
H1742       H  0.31272766  0.53806920  0.75005976     0.17400
H1743       H  0.44230065  0.66088403  0.81231546     0.17400
H1744       H  0.43612559  0.53139322  0.74999294     0.17400
C1745       C  0.23666645  0.93660982  0.85514824    -0.04100
C1746       C  0.26208740  0.91991493  0.87746457    -0.01200
C1747       C  0.25361425  0.92181245  0.90977418     0.03800
C1748       C  0.22565156  0.94871156  0.92123322    -0.04100
C1749       C  0.45245670  0.96909286  0.89896415    -0.01200
C1750       C  0.45664270  0.96146388  0.86636724     0.03800
C1751       C  0.29989210  0.90580977  0.86824440     0.38400
C1752       C  0.42647063  0.00026288  0.90893248     0.38400
C1753       C  0.43241466  0.98221105  0.84413721     0.36800
C1754       C  0.27556610  0.89725215  0.93122321     0.36800
N1755       N  0.41304356  0.99876714  0.82641614    -0.38000
N1756       N  0.29313392  0.87770005  0.94823000    -0.38000
N1757       N  0.40628462  0.02565424  0.91676788    -0.37400
N1758       N  0.33151831  0.89782215  0.86166097    -0.37400
C1759       C  0.23794894  0.93635723  0.64472906    -0.04100
C1760       C  0.26305997  0.91935115  0.62208798    -0.01200
C1761       C  0.25406269  0.92083799  0.58997645     0.03800
C1762       C  0.22573266  0.94740169  0.57889856    -0.04100
C1763       C  0.45238584  0.96751401  0.60141385    -0.01200
C1764       C  0.45761995  0.96089287  0.63396433     0.03800
C1765       C  0.30080229  0.90486025  0.63069564     0.38400
C1766       C  0.42452557  0.99691780  0.59160333     0.38400
C1767       C  0.43398159  0.98220518  0.65653066     0.36800
C1768       C  0.27542210  0.89584595  0.56827625     0.36800
N1769       N  0.41510651  0.99923533  0.67450679    -0.38000
N1770       N  0.29237116  0.87581942  0.55106005    -0.38000
N1771       N  0.40267382  0.02080138  0.58385382    -0.37400
N1772       N  0.33236711  0.89634377  0.63664506    -0.37400
C1773       C  0.26853667  0.56515611  0.92218719    -0.04100
C1774       C  0.28524702  0.53851932  0.90031118    -0.01200
C1775       C  0.27950469  0.54406136  0.86803999     0.03800
C1776       C  0.25990456  0.57749974  0.85721689    -0.04100
C1777       C  0.49924634  0.60712044  0.87867196    -0.01200
C1778       C  0.50151245  0.60014061  0.91117970     0.03800
C1779       C  0.30817017  0.50517392  0.91057727     0.38400
C1780       C  0.49133923  0.64623939  0.86727272     0.38400
C1781       C  0.48796440  0.62950170  0.93325866     0.36800
C1782       C  0.29583428  0.51670856  0.84555629     0.36800
N1783       N  0.47731456  0.65282167  0.95104386    -0.38000
N1784       N  0.30982921  0.49579460  0.82737808    -0.38000
N1785       N  0.48729625  0.67806509  0.85840673    -0.37400
N1786       N  0.32693166  0.97887905  0.91867254    -0.37400
C1787       C  0.26919621  0.56477667  0.57789773    -0.04100
C1788       C  0.25324272  0.60037373  0.58878032    -0.01200
C1789       C  0.25133156  0.60771523  0.62125091     0.03800
C1790       C  0.26134858  0.57797134  0.64278670    -0.04100
C1791       C  0.53012451  0.54402578  0.63203998    -0.01200
C1792       C  0.53549607  0.53801725  0.59975778     0.03800
C1793       C  0.24053195  0.62993171  0.56659625     0.38400
C1794       C  0.54587791  0.51657649  0.65461047     0.38400
C1795       C  0.55764086  0.50411338  0.58947053     0.36800
C1796       C  0.24419096  0.64705886  0.63245363     0.36800
N1797       N  0.57586108  0.97736534  0.58139958    -0.38000
N1798       N  0.24065548  0.67897496  0.64117426    -0.38000
N1799       N  0.55935667  0.49568177  0.67295505    -0.37400
N1800       N  0.23059753  0.65346526  0.54875396    -0.37400
C1801       C  0.34941624  0.80286873  0.92161533    -0.04100
C1802       C  0.37613075  0.83123352  0.91057217    -0.01200
C1803       C  0.38505098  0.83383032  0.87839397     0.03800
C1804       C  0.36100380  0.81600462  0.85580160    -0.04100
C1805       C  0.33191547  0.78979257  0.86656772    -0.01200
C1806       C  0.32722399  0.78195061  0.89910695     0.03800
C1807       C  0.39595174  0.85698513  0.93234445     0.38400
C1808       C  0.30975733  0.76762456  0.84391057     0.38400
C1809       C  0.30159915  0.75030773  0.90880456     0.36800
C1810       C  0.42231291  0.84955478  0.86963426     0.36800
N1811       N  0.28150046  0.72466405  0.91632856    -0.38000
N1812       N  0.45375679  0.85870310  0.86357141    -0.38000
N1813       N  0.29226245  0.74978944  0.82579850    -0.37400
N1814       N  0.41158709  0.87777280  0.94954951    -0.37400
C1815       C  0.35209729  0.80194193  0.57876006    -0.04100
C1816       C  0.32885476  0.78191419  0.60148002    -0.01200
C1817       C  0.33255850  0.79039221  0.63387570     0.03800
C1818       C  0.36249896  0.81544720  0.64453119    -0.04100
C1819       C  0.38795999  0.83191729  0.62181036    -0.01200
C1820       C  0.37994666  0.82910330  0.58958173     0.03800
C1821       C  0.30348488  0.75006797  0.59224123     0.38400
C1822       C  0.42504429  0.84760269  0.63066301     0.38400
C1823       C  0.40202460  0.85323552  0.56760248     0.36800
C1824       C  0.30745605  0.77065920  0.65640952     0.36800
N1825       N  0.41970827  0.87252906  0.55024452    -0.38000
N1826       N  0.28710110  0.75502437  0.67421666    -0.38000
N1827       N  0.45620079  0.85707528  0.63691427    -0.37400
N1828       N  0.28388642  0.72408333  0.58501195    -0.37400
C1829       C  0.38457156  0.67442518  0.85628275    -0.04100
C1830       C  0.40359819  0.70808084  0.86705915    -0.01200
C1831       C  0.40945930  0.71333836  0.89930625     0.03800
C1832       C  0.39329305  0.68619388  0.92118704    -0.04100
C1833       C  0.37697399  0.65096387  0.91015219    -0.01200
C1834       C  0.37480006  0.64427304  0.87764727     0.03800
C1835       C  0.41992878  0.73552973  0.84451286     0.38400
C1836       C  0.36448031  0.62088399  0.93212320     0.38400
C1837       C  0.36823801  0.60500243  0.86612153     0.36800
C1838       C  0.43234316  0.74665878  0.90947664     0.36800
N1839       N  0.36528345  0.57316869  0.85712044    -0.38000
N1840       N  0.45118426  0.77293020  0.91733772    -0.38000
N1841       N  0.35470410  0.59678789  0.94966979    -0.37400
N1842       N  0.43410767  0.75638339  0.82629228    -0.37400
C1843       C  0.38645159  0.67375342  0.64268807    -0.04100
C1844       C  0.37653874  0.64360449  0.62163360    -0.01200
C1845       C  0.37875173  0.65022221  0.58904511     0.03800
C1846       C  0.39528846  0.68532107  0.57753615    -0.04100
C1847       C  0.41172881  0.71231472  0.59901606    -0.01200
C1848       C  0.40566890  0.70727193  0.63139769     0.03800
C1849       C  0.36953910  0.60442832  0.63347276     0.38400
C1850       C  0.43501661  0.74526121  0.58822602     0.38400
C1851       C  0.42151326  0.73504669  0.65353263     0.36800
C1852       C  0.36590837  0.62025194  0.56742979     0.36800
N1853       N  0.43513564  0.75622267  0.67149322    -0.38000
N1854       N  0.35584333  0.59626162  0.55015244    -0.38000
N1855       N  0.45418496  0.77117673  0.57974386    -0.37400
N1856       N  0.36619263  0.57262105  0.64264383    -0.37400
O1857       O  0.66525823  0.21786262  0.03067796    -0.70500
O1858       O  0.63653784  0.28980196  0.46754462    -0.70700
O1859       O  0.63776902  0.28932865  0.03154856    -0.70600
O1860       O  0.66429819  0.21834318  0.46730540    -0.70600
O1861       O  0.60546912  0.19546915  0.46770607    -0.70600
O1862       O  0.57891268  0.26711078  0.03293556    -0.70600
O1863       O  0.57779230  0.26714860  0.46794194    -0.70500
O1864       O  0.60633380  0.19528760  0.03228581    -0.70700
V1865       V  0.64971524  0.25346014  0.99927648     1.35200
V1866       V  0.59314914  0.23160904  0.50020976     1.35200
C1867       C  0.63953694  0.19787391  0.04460922     0.78700
C1868       C  0.60376783  0.28756863  0.45447216     0.78800
C1869       C  0.60543096  0.28712370  0.04568692     0.78600
C1870       C  0.63827590  0.19837652  0.45425204     0.78600
O1871       O  0.70287379  0.48316241  0.46780301    -0.70500
O1872       O  0.73023720  0.05428026  0.03275289    -0.70700
O1873       O  0.73019921  0.05492657  0.46825368    -0.70600
O1874       O  0.70285964  0.48243278  0.03288226    -0.70600
O1875       O  0.51171794  0.46016562  0.03186409    -0.70600
O1876       O  0.53915716  0.03234617  0.46833589    -0.70600
O1877       O  0.53920844  0.03169973  0.03158065    -0.70500
O1878       O  0.51171237  0.46084555  0.46787700    -0.70700
V1879       V  0.71756342  0.01832188  0.50042880     1.35200
V1880       V  0.52415859  0.99660870  0.99993160     1.35200
C1881       C  0.47923741  0.46321947  0.45438761     0.78700
C1882       C  0.51338526  0.05174551  0.04521328     0.78800
C1883       C  0.51322029  0.05240686  0.45513395     0.78600
C1884       C  0.47920818  0.46223986  0.04577281     0.78600
C1885       C  0.71376669  0.12412997  0.24990629     0.31300
C1886       C  0.54347535  0.12773433  0.24983413     0.31300
C1887       C  0.73458149  0.10466320  0.22180672    -0.04900
C1888       C  0.73179610  0.16601554  0.24971440    -0.05700
C1889       C  0.73405486  0.10477610  0.27820003    -0.05600
C1890       C  0.52496221  0.10647676  0.22226450    -0.04900
C1891       C  0.52227651  0.16802018  0.24970206    -0.05700
C1892       C  0.52445276  0.10659687  0.27761521    -0.05600
C1893       C  0.53853413  0.09275838  0.19421083    -0.31000
N1894       N  0.50793993  0.08463533  0.17586038     0.15500
C1895       C  0.72468949  0.09059931  0.19252697    -0.31000
H1896       H  0.69574524  0.08748291  0.18316959     0.17500
C1897       C  0.53191261  0.20771655  0.24962798    -0.30000
N1898       N  0.49852510  0.22962454  0.24960051     0.14200
C1899       C  0.71792294  0.20429891  0.24962066    -0.30000
C1900       C  0.53761757  0.09259361  0.30558959    -0.30300
N1901       N  0.50678386  0.08420511  0.32408710     0.14700
H1902       H  0.56743221  0.09097650  0.31291040     0.17400
C1903       C  0.72374789  0.09046435  0.30757217    -0.30300
H1904       H  0.69465861  0.08738621  0.31707009     0.17400
H1905       H  0.68768727  0.21292828  0.24963927     0.17400
H1906       H  0.56843075  0.09111725  0.18676716     0.17400
H1907       H  0.56107285  0.21948786  0.24965348     0.17400
C1908       C  0.53042800  0.37709597  0.24999026     0.31300
C1909       C  0.70078727  0.37321937  0.25004826     0.31300
C1910       C  0.51022718  0.39681473  0.22207639    -0.04900
C1911       C  0.51249864  0.33513937  0.25004340    -0.05700
C1912       C  0.50964770  0.39676897  0.27784995    -0.05600
C1913       C  0.72001191  0.39445014  0.22190343    -0.04900
C1914       C  0.72203936  0.33301744  0.25003543    -0.05700
C1915       C  0.71943496  0.39440874  0.27817397    -0.05600
C1916       C  0.70786907  0.41130228  0.19426637    -0.31000
N1917       N  0.48933743  0.42408970  0.17752026     0.15500
C1918       C  0.52140098  0.41597100  0.19500971    -0.31000
H1919       H  0.55106304  0.42242423  0.18861487     0.17500
C1920       C  0.71246798  0.29331356  0.24981223    -0.30000
N1921       N  0.49587645  0.27146328  0.24973690     0.14200
C1922       C  0.52643775  0.29685156  0.24987880    -0.30000
C1923       C  0.70688316  0.41153049  0.30577831    -0.30300
N1924       N  0.48814576  0.42438478  0.32230988     0.14700
H1925       H  0.67712513  0.41234967  0.31411076     0.17400
C1926       C  0.52038245  0.41625014  0.30460445    -0.30300
H1927       H  0.54994015  0.42310443  0.31054756     0.17400
H1928       H  0.55668447  0.28825897  0.24981790     0.17400
H1929       H  0.67824734  0.41196588  0.18603519     0.17400
H1930       H  0.68332501  0.28150144  0.24968996     0.17400
C1931       C  0.57576989  0.37786585  0.24999713     0.31300
C1932       C  0.65542043  0.37392895  0.24996412     0.31300
C1933       C  0.59493137  0.35677108  0.22188446    -0.04900
C1934       C  0.59703460  0.41803263  0.24991489    -0.05700
C1935       C  0.59438929  0.35662224  0.27815925    -0.05600
C1936       C  0.63514554  0.35429272  0.22204610    -0.04900
C1937       C  0.63749489  0.41586616  0.24988925    -0.05700
C1938       C  0.63463243  0.35434106  0.27797158    -0.05600
C1939       C  0.64614499  0.33542272  0.19485516    -0.30400
N1940       N  0.61400893  0.32773504  0.17730726     0.15500
C1941       C  0.58265497  0.34047747  0.19413825    -0.31000
H1942       H  0.55302649  0.34014564  0.18592384     0.17500
C1943       C  0.65145715  0.45411086  0.24992536    -0.30000
N1944       N  0.62089899  0.47951750  0.24998934     0.14200
C1945       C  0.58748338  0.45773174  0.24997142    -0.30000
C1946       C  0.64529923  0.33587490  0.30533139    -0.30300
N1947       N  0.61289993  0.32794566  0.32292543     0.14700
H1948       H  0.67485610  0.32984053  0.31191714     0.17400
C1949       C  0.58170159  0.34019030  0.30603180    -0.30300
H1950       H  0.55191257  0.33943543  0.31432592     0.17400
H1951       H  0.55833414  0.46959291  0.25004384     0.17400
H1952       H  0.67576813  0.32882153  0.18844530     0.17400
H1953       H  0.68169063  0.46266739  0.24994772     0.17400
C1954       C  0.58876256  0.12678959  0.24978432     0.31300
C1955       C  0.66848349  0.12317626  0.24978158     0.31300
C1956       C  0.60901227  0.14635218  0.27780968    -0.04900
C1957       C  0.60682304  0.08491807  0.24998517    -0.05700
C1958       C  0.60958970  0.14613930  0.22152886    -0.05600
C1959       C  0.64939841  0.14450579  0.27729167    -0.04900
C1960       C  0.64730977  0.08289478  0.24998458    -0.05700
C1961       C  0.64998066  0.14430981  0.22200470    -0.05600
C1962       C  0.66251074  0.15914110  0.30496353    -0.31000
N1963       N  0.63160726  0.16790710  0.32321813     0.15500
C1964       C  0.59861328  0.16132628  0.30681972    -0.31000
H1965       H  0.56950559  0.16454152  0.31624459     0.17500
C1966       C  0.65695197  0.04319743  0.25004808    -0.30000
N1967       N  0.62356285  0.02133285  0.25009023     0.14200
C1968       C  0.59295005  0.04666579  0.25007666    -0.30000
C1969       C  0.66358469  0.15888337  0.19415164    -0.30300
N1970       N  0.63300074  0.16750366  0.17586223     0.14700
H1971       H  0.69351187  0.16069889  0.18673142     0.17400
C1972       C  0.59972998  0.16105751  0.19244103    -0.30300
H1973       H  0.57078096  0.16437242  0.18310504     0.17400
H1974       H  0.56272767  0.03806650  0.25005833     0.17400
H1975       H  0.69230085  0.16088660  0.31230756     0.17400
H1976       H  0.68612556  0.03139195  0.24998904     0.17400
C1977       C  0.48668905  0.43662153  0.35514450    -0.04100
C1978       C  0.51211653  0.41993043  0.37745798    -0.01200
C1979       C  0.50364961  0.42182937  0.40976870     0.03800
C1980       C  0.47568720  0.44872682  0.42123043    -0.04100
C1981       C  0.70248790  0.46910496  0.39896359    -0.01200
C1982       C  0.70666742  0.46147410  0.36636662     0.03800
C1983       C  0.54992325  0.40583478  0.36823342     0.38400
C1984       C  0.67649918  0.50027138  0.40893386     0.38400
C1985       C  0.68243033  0.48221441  0.34413890     0.36800
C1986       C  0.52560323  0.39726870  0.43121580     0.36800
N1987       N  0.66305149  0.49876311  0.32641901    -0.38000
N1988       N  0.54316998  0.37771512  0.44822222    -0.38000
N1989       N  0.65631004  0.52565929  0.41677088    -0.37400
N1990       N  0.58155031  0.39785747  0.36164405    -0.37400
C1991       C  0.48792636  0.43634196  0.14472807    -0.04100
C1992       C  0.51303133  0.41933390  0.12208377    -0.01200
C1993       C  0.50402688  0.42082090  0.08997395     0.03800
C1994       C  0.47569770  0.44738822  0.07890008    -0.04100
C1995       C  0.70235836  0.46750493  0.10141832    -0.01200
C1996       C  0.70759689  0.46088094  0.13396781     0.03800
C1997       C  0.55077274  0.40483478  0.13068567     0.38400
C1998       C  0.67450362  0.49691649  0.09161178     0.38400
C1999       C  0.68396154  0.48219213  0.15653690     0.36800
C2000       C  0.52538147  0.39582842  0.06827068     0.36800
N2001       N  0.66508716  0.49922097  0.17451431    -0.38000
N2002       N  0.54232789  0.37580338  0.05105168    -0.38000
N2003       N  0.65265648  0.52080635  0.08386587    -0.37400
N2004       N  0.58233738  0.39630912  0.13662743    -0.37400
C2005       C  0.51855954  0.06517475  0.42218306    -0.04100
C2006       C  0.53526700  0.03853761  0.40030599    -0.01200
C2007       C  0.52951343  0.04407400  0.36803551     0.03800
C2008       C  0.50990575  0.07750804  0.35721305    -0.04100
C2009       C  0.74924773  0.10713007  0.37866816    -0.01200
C2010       C  0.75152581  0.10015501  0.41117611     0.03800
C2011       C  0.55819691  0.00519642  0.41057021     0.38400
C2012       C  0.74132911  0.14624570  0.36726728     0.38400
C2013       C  0.73798101  0.12951647  0.43325600     0.36800
C2014       C  0.54583682  0.01671897  0.34555058     0.36800
N2015       N  0.72733468  0.15283529  0.45104348    -0.38000
N2016       N  0.55982478  0.99580410  0.32736958    -0.38000
N2017       N  0.73727724  0.17806923  0.35839915    -0.37400
N2018       N  0.57695889  0.47890045  0.41866234    -0.37400
C2019       C  0.51917894  0.06475685  0.07789576    -0.04100
C2020       C  0.50323230  0.10035700  0.08877750    -0.01200
C2021       C  0.50132938  0.10770232  0.12124746     0.03800
C2022       C  0.51134644  0.07795895  0.14278377    -0.04100
C2023       C  0.78011508  0.04401022  0.13203728    -0.01200
C2024       C  0.78548020  0.03799802  0.09975504     0.03800
C2025       C  0.49051921  0.12991347  0.06659286     0.38400
C2026       C  0.79586768  0.01656007  0.15460730     0.38400
C2027       C  0.80762179  0.00409199  0.08946695     0.36800
C2028       C  0.49419377  0.14704788  0.13244806     0.36800
N2029       N  0.82583892  0.47734182  0.08139317    -0.38000
N2030       N  0.49066084  0.17896549  0.14116588    -0.38000
N2031       N  0.80934667  0.99566364  0.17295049    -0.37400
N2032       N  0.48058251  0.15344510  0.04874980    -0.37400
C2033       C  0.59938599  0.30284657  0.42161965    -0.04100
C2034       C  0.62609116  0.33122423  0.41058362    -0.01200
C2035       C  0.63501236  0.33383469  0.37840657     0.03800
C2036       C  0.61097691  0.31600416  0.35580874    -0.04100
C2037       C  0.58189418  0.28978101  0.36656828    -0.01200
C2038       C  0.57720089  0.28192935  0.39910627     0.03800
C2039       C  0.64590768  0.35697150  0.43236239     0.38400
C2040       C  0.55974538  0.26761158  0.34390607     0.38400
C2041       C  0.55158271  0.25027807  0.40879756     0.36800
C2042       C  0.67226129  0.34959335  0.36965246     0.36800
N2043       N  0.53148893  0.22462838  0.41631679    -0.38000
N2044       N  0.70369804  0.35877405  0.36359865    -0.38000
N2045       N  0.54225791  0.24977404  0.32579085    -0.37400
N2046       N  0.66154325  0.37775423  0.44957114    -0.37400
C2047       C  0.60211953  0.30195783  0.07876594    -0.04100
C2048       C  0.57886829  0.28193164  0.10148124    -0.01200
C2049       C  0.58257257  0.29039894  0.13387833     0.03800
C2050       C  0.61251911  0.31544208  0.14453954    -0.04100
C2051       C  0.63799122  0.33190602  0.12182384    -0.01200
C2052       C  0.62997932  0.32910440  0.08959417     0.03800
C2053       C  0.55348724  0.25009729  0.09223649     0.38400
C2054       C  0.67508671  0.34756148  0.13068197     0.38400
C2055       C  0.65206697  0.35323479  0.06762047     0.36800
C2056       C  0.55746445  0.27066581  0.15640821     0.36800
N2057       N  0.66975638  0.37252662  0.05026518    -0.38000
N2058       N  0.53710621  0.25503173  0.17421334    -0.38000
N2059       N  0.70624948  0.35700704  0.13694015    -0.37400
N2060       N  0.53387974  0.22412115  0.08500382    -0.37400
C2061       C  0.63457355  0.17442000  0.35627874    -0.04100
C2062       C  0.65358945  0.20808085  0.36705674    -0.01200
C2063       C  0.65945222  0.21333696  0.39930396     0.03800
C2064       C  0.64330113  0.18618235  0.42118406    -0.04100
C2065       C  0.62699545  0.15094695  0.41014724    -0.01200
C2066       C  0.62481592  0.14426112  0.37764152     0.03800
C2067       C  0.66991094  0.23553568  0.34451105     0.38400
C2068       C  0.61452199  0.12085785  0.43211747     0.38400
C2069       C  0.61825784  0.10499173  0.36611160     0.36800
C2070       C  0.68232389  0.24666569  0.40947471     0.36800
N2071       N  0.61530455  0.07316017  0.35710531    -0.38000
N2072       N  0.70115584  0.27294444  0.41733458    -0.38000
N2073       N  0.60476294  0.09675596  0.44966510    -0.37400
N2074       N  0.68408395  0.25639294  0.32629028    -0.37400
C2075       C  0.63644156  0.17374804  0.14268142    -0.04100
C2076       C  0.62651944  0.14360534  0.12162415    -0.01200
C2077       C  0.62872998  0.15022895  0.08903636     0.03800
C2078       C  0.64527498  0.18532569  0.07753101    -0.04100
C2079       C  0.66172487  0.21231037  0.09901311    -0.01200
C2080       C  0.65566493  0.20726433  0.13139403     0.03800
C2081       C  0.61951560  0.10442780  0.13345862     0.38400
C2082       C  0.68502345  0.24525045  0.08822612     0.38400
C2083       C  0.67151333  0.23503418  0.15353117     0.36800
C2084       C  0.61587878  0.12026507  0.06741838     0.36800
N2085       N  0.68513743  0.25620643  0.17149377    -0.38000
N2086       N  0.60580774  0.09627848  0.05013995    -0.38000
N2087       N  0.70420035  0.27116045  0.07974591    -0.37400
N2088       N  0.61616684  0.07261860  0.14262476    -0.37400
O2089       O  0.66526252  0.21785491  0.53067859    -0.70500
O2090       O  0.63655948  0.28982144  0.96754416    -0.70700
O2091       O  0.63775042  0.28931133  0.53154697    -0.70600
O2092       O  0.66429555  0.21835225  0.96730692    -0.70600
O2093       O  0.60545819  0.19549973  0.96770498    -0.70600
O2094       O  0.57890048  0.26707609  0.53293505    -0.70600
O2095       O  0.57780599  0.26718893  0.96794289    -0.70500
O2096       O  0.60634491  0.19526215  0.53228845    -0.70700
V2097       V  0.64970709  0.25344579  0.49927593     1.35200
V2098       V  0.59315019  0.23164194  0.00020918     1.35200
C2099       C  0.63954682  0.19786137  0.54461234     0.78700
C2100       C  0.60378907  0.28759735  0.95447118     0.78800
C2101       C  0.60541257  0.28709958  0.54568462     0.78600
C2102       C  0.63826744  0.19839354  0.95425345     0.78600
O2103       O  0.70283591  0.48315245  0.96780497    -0.70500
O2104       O  0.73026180  0.05429716  0.53275112    -0.70700
O2105       O  0.73017177  0.05490955  0.96825539    -0.70600
O2106       O  0.70289493  0.48244202  0.53287965    -0.70600
O2107       O  0.51175759  0.46018498  0.53186491    -0.70600
O2108       O  0.53912598  0.03232225  0.96833883    -0.70600
O2109       O  0.53923687  0.03172580  0.53158123    -0.70500
O2110       O  0.51167139  0.46082718  0.96787886    -0.70700
V2111       V  0.71753202  0.01830672  0.00043113     1.35200
V2112       V  0.52419369  0.99663152  0.49993048     1.35200
C2113       C  0.47919676  0.46320436  0.95438996     0.78700
C2114       C  0.51340945  0.05176755  0.54521339     0.78800
C2115       C  0.51319219  0.05238680  0.95513716     0.78600
C2116       C  0.47924591  0.46225397  0.54577175     0.78600
C2117       C  0.71376681  0.12413123  0.74991327     0.31300
C2118       C  0.54347545  0.12773662  0.74984006     0.31300
C2119       C  0.73458099  0.10466504  0.72181309    -0.04900
C2120       C  0.73179618  0.16601717  0.74972221    -0.05700
C2121       C  0.73405544  0.10477646  0.77820638    -0.05600
C2122       C  0.52496181  0.10648012  0.72227032    -0.04900
C2123       C  0.52227654  0.16802247  0.74970902    -0.05700
C2124       C  0.52445324  0.10659800  0.77762136    -0.05600
C2125       C  0.53853327  0.09276770  0.69421482    -0.31000
N2126       N  0.50793914  0.08464629  0.67586394     0.15500
C2127       C  0.72468859  0.09060492  0.69253201    -0.31000
H2128       H  0.69574410  0.08748955  0.68317468     0.17500
C2129       C  0.53191267  0.20771896  0.74963332    -0.30000
N2130       N  0.49852525  0.22962714  0.74960568     0.14200
C2131       C  0.71792312  0.20430088  0.74962796    -0.30000
C2132       C  0.53761802  0.09259051  0.80559474    -0.30300
N2133       N  0.50678419  0.08419890  0.82409146     0.14700
H2134       H  0.56743292  0.09097268  0.81291526     0.17400
C2135       C  0.72374872  0.09046005  0.80757705    -0.30300
H2136       H  0.69465957  0.08738095  0.81707473     0.17400
H2137       H  0.68768773  0.21293030  0.74964685     0.17400
H2138       H  0.56842962  0.09112934  0.68677017     0.17400
H2139       H  0.56107294  0.21949024  0.74965675     0.17400
C2140       C  0.53042847  0.37709935  0.74999303     0.31300
C2141       C  0.70078784  0.37322209  0.75004150     0.31300
C2142       C  0.51023179  0.39682048  0.72207811    -0.04900
C2143       C  0.51249918  0.33514261  0.75004333    -0.05700
C2144       C  0.50964371  0.39677064  0.77785215    -0.05600
C2145       C  0.72001670  0.39445458  0.72189988    -0.04900
C2146       C  0.72204005  0.33302022  0.75003041    -0.05700
C2147       C  0.71943053  0.39441037  0.77817059    -0.05600
C2148       C  0.70787911  0.41131097  0.69426287    -0.31000
N2149       N  0.48935139  0.42410247  0.67752175     0.15500
C2150       C  0.52141083  0.41598258  0.69501546    -0.31000
H2151       H  0.55107377  0.42244024  0.68862660     0.17500
C2152       C  0.71246864  0.29331618  0.74980824    -0.30000
N2153       N  0.49587684  0.27146611  0.74973853     0.14200
C2154       C  0.52643815  0.29685446  0.74988315    -0.30000
C2155       C  0.70687220  0.41152877  0.80577462    -0.30300
N2156       N  0.48813043  0.42438002  0.82231227     0.14700
H2157       H  0.67711241  0.41234632  0.81410339     0.17400
C2158       C  0.52037189  0.41624723  0.80461115    -0.30300
H2159       H  0.54992827  0.42309815  0.81056091     0.17400
H2160       H  0.55668477  0.28826171  0.74982788     0.17400
H2161       H  0.67825858  0.41197601  0.68602841     0.17400
H2162       H  0.68332579  0.28150424  0.74968321     0.17400
C2163       C  0.57577051  0.37786823  0.74999755     0.31300
C2164       C  0.65542114  0.37393117  0.74995474     0.31300
C2165       C  0.59492739  0.35677511  0.72188091    -0.04900
C2166       C  0.59703532  0.41803480  0.74991538    -0.05700
C2167       C  0.59439473  0.35662267  0.77815605    -0.05600
C2168       C  0.63514214  0.35429823  0.72203672    -0.04900
C2169       C  0.63749558  0.41586828  0.74988453    -0.05700
C2170       C  0.63463749  0.35433984  0.77796224    -0.05600
C2171       C  0.64613592  0.33543158  0.69484238    -0.30400
N2172       N  0.61399559  0.32774113  0.67729965     0.15500
C2173       C  0.58264505  0.34048037  0.69413626    -0.31000
H2174       H  0.55301435  0.34014544  0.68592653     0.17500
C2175       C  0.65145790  0.45411288  0.74992142    -0.30000
N2176       N  0.62089972  0.47951948  0.74999103     0.14200
C2177       C  0.58748411  0.45773380  0.74997623    -0.30000
C2178       C  0.64531078  0.33587018  0.80531850    -0.30300
N2179       N  0.61291614  0.32794385  0.82291832     0.14700
H2180       H  0.67486865  0.32983062  0.81189709     0.17400
C2181       C  0.58171371  0.34019173  0.80603060    -0.30300
H2182       H  0.55192692  0.33943991  0.81432985     0.17400
H2183       H  0.55833470  0.46959503  0.75005349     0.17400
H2184       H  0.67575848  0.32883561  0.68842578     0.17400
H2185       H  0.68169152  0.46266943  0.74994026     0.17400
C2186       C  0.58876284  0.12679178  0.74978883     0.31300
C2187       C  0.66848374  0.12317753  0.74978782     0.31300
C2188       C  0.60901198  0.14635123  0.77781559    -0.04900
C2189       C  0.60682293  0.08492005  0.74998757    -0.05700
C2190       C  0.60959143  0.14614439  0.72153468    -0.05600
C2191       C  0.64939806  0.14450394  0.77729870    -0.04900
C2192       C  0.64730966  0.08289640  0.74998766    -0.05700
C2193       C  0.64998236  0.14431468  0.72201199    -0.05600
C2194       C  0.66250976  0.15913900  0.80497067    -0.31000
N2195       N  0.63160553  0.16790754  0.82322356     0.15500
C2196       C  0.59861201  0.16132683  0.80682462    -0.31000
H2197       H  0.56950380  0.16454403  0.81624831     0.17500
C2198       C  0.65695168  0.04319916  0.75005044    -0.30000
N2199       N  0.62356252  0.02133482  0.75009147     0.14200
C2200       C  0.59294974  0.04666785  0.75007803    -0.30000
C2201       C  0.66358881  0.15889215  0.69416091    -0.30300
N2202       N  0.63300677  0.16751423  0.67587008     0.14700
H2203       H  0.69351663  0.16070755  0.68674246     0.17400
C2204       C  0.59973454  0.16106546  0.69244683    -0.30300
H2205       H  0.57078630  0.16437948  0.68310896     0.17400
H2206       H  0.56272737  0.03806868  0.75005923     0.17400
H2207       H  0.69229959  0.16088367  0.81231597     0.17400
H2208       H  0.68612532  0.03139352  0.74999238     0.17400
C2209       C  0.48666367  0.43661046  0.85514832    -0.04100
C2210       C  0.51208375  0.41991478  0.87746487    -0.01200
C2211       C  0.50360981  0.42181190  0.90977433     0.03800
C2212       C  0.47564751  0.44871144  0.92123323    -0.04100
C2213       C  0.70245426  0.46909403  0.89896418    -0.01200
C2214       C  0.70664074  0.46146541  0.86636720     0.03800
C2215       C  0.54988822  0.40580861  0.86824513     0.38400
C2216       C  0.67646661  0.50026256  0.90893269     0.38400
C2217       C  0.68241225  0.48221200  0.84413713     0.36800
C2218       C  0.52556006  0.39725021  0.93122339     0.36800
N2219       N  0.66304071  0.49876746  0.82641598    -0.38000
N2220       N  0.54312666  0.37769682  0.94823007    -0.38000
N2221       N  0.65627895  0.52565247  0.91676834    -0.37400
N2222       N  0.58151437  0.39782015  0.86166212    -0.37400
C2223       C  0.48794875  0.43635743  0.64472965    -0.04100
C2224       C  0.51305969  0.41935112  0.62208863    -0.01200
C2225       C  0.50406220  0.42083759  0.58997711     0.03800
C2226       C  0.47573200  0.44740111  0.57889915    -0.04100
C2227       C  0.70238385  0.46751302  0.60141490    -0.01200
C2228       C  0.70761861  0.46089242  0.63396536     0.03800
C2229       C  0.55080201  0.40486028  0.63069636     0.38400
C2230       C  0.67452362  0.49691687  0.59160445     0.38400
C2231       C  0.68398142  0.48220567  0.65653189     0.36800
C2232       C  0.52542149  0.39584526  0.56827702     0.36800
N2233       N  0.66510734  0.49923633  0.67450839    -0.38000
N2234       N  0.54237054  0.37581855  0.55106095    -0.38000
N2235       N  0.65267189  0.52080046  0.58385499    -0.37400
N2236       N  0.58236678  0.39634382  0.63664597    -0.37400
C2237       C  0.51853699  0.06515637  0.92218763    -0.04100
C2238       C  0.53524730  0.03851965  0.90031155    -0.01200
C2239       C  0.52950425  0.04406134  0.86804041     0.03800
C2240       C  0.50990372  0.07749949  0.85721732    -0.04100
C2241       C  0.74924601  0.10711992  0.87867250    -0.01200
C2242       C  0.75151320  0.10014062  0.91118030     0.03800
C2243       C  0.55817153  0.00517494  0.91057750     0.38400
C2244       C  0.74133830  0.14623859  0.86727298     0.38400
C2245       C  0.73796670  0.12950242  0.93325929     0.36800
C2246       C  0.54583345  0.01670840  0.84555668     0.36800
N2247       N  0.72731825  0.15282318  0.95104435    -0.38000
N2248       N  0.55982813  0.99579449  0.82737831    -0.38000
N2249       N  0.73729476  0.17806402  0.85840653    -0.37400
N2250       N  0.57692785  0.47887648  0.91867251    -0.37400
C2251       C  0.51919579  0.06477757  0.57789799    -0.04100
C2252       C  0.50324120  0.10037416  0.58878057    -0.01200
C2253       C  0.50132979  0.10771563  0.62125117     0.03800
C2254       C  0.51134720  0.07797189  0.64278697    -0.04100
C2255       C  0.78012357  0.04402601  0.63204042    -0.01200
C2256       C  0.78549544  0.03801773  0.59975819     0.03800
C2257       C  0.49052958  0.12993178  0.56659650     0.38400
C2258       C  0.79587676  0.01657658  0.65461091     0.38400
C2259       C  0.80764114  0.00411436  0.58947095     0.36800
C2260       C  0.49418887  0.14705926  0.63245378     0.36800
N2261       N  0.82585868  0.47736213  0.58139961    -0.38000
N2262       N  0.49065316  0.17897549  0.64117404    -0.38000
N2263       N  0.80935529  0.99568174  0.67295551    -0.37400
N2264       N  0.48059434  0.15346499  0.54875422    -0.37400
C2265       C  0.59941332  0.30286646  0.92161534    -0.04100
C2266       C  0.62612707  0.33123227  0.91057269    -0.01200
C2267       C  0.63504779  0.33382982  0.87839465     0.03800
C2268       C  0.61100198  0.31600323  0.85580185    -0.04100
C2269       C  0.58191437  0.28979006  0.86656739    -0.01200
C2270       C  0.57722224  0.28194783  0.89910653     0.03800
C2271       C  0.64594650  0.35698464  0.93234530     0.38400
C2272       C  0.55975761  0.26762147  0.84390973     0.38400
C2273       C  0.55159775  0.25030447  0.90880369     0.36800
C2274       C  0.67230859  0.34955718  0.86963538     0.36800
N2275       N  0.53149936  0.22466042  0.91632735    -0.38000
N2276       N  0.70375178  0.35870809  0.86357284    -0.38000
N2277       N  0.54226383  0.24978592  0.82579727    -0.37400
N2278       N  0.66158072  0.37777320  0.94955034    -0.37400
C2279       C  0.60209637  0.30194235  0.57876079    -0.04100
C2280       C  0.57885362  0.28191475  0.60148068    -0.01200
C2281       C  0.58255761  0.29039242  0.63387640     0.03800
C2282       C  0.61249830  0.31544708  0.64453198    -0.04100
C2283       C  0.63795960  0.33191684  0.62181123    -0.01200
C2284       C  0.62994609  0.32910329  0.58958261     0.03800
C2285       C  0.55348301  0.25006918  0.59224174     0.38400
C2286       C  0.67504431  0.34760127  0.63066396     0.38400
C2287       C  0.65202403  0.35323572  0.56760356     0.36800
C2288       C  0.55745523  0.27065924  0.65641017     0.36800
N2289       N  0.66970759  0.37252958  0.55024575    -0.38000
N2290       N  0.53710040  0.25502410  0.67421720    -0.38000
N2291       N  0.70620101  0.35707300  0.63691544    -0.37400
N2292       N  0.53388382  0.22408514  0.58501241    -0.37400
C2293       C  0.63457042  0.17442410  0.85628343    -0.04100
C2294       C  0.65359662  0.20807993  0.86705986    -0.01200
C2295       C  0.65945806  0.21333732  0.89930693     0.03800
C2296       C  0.64329237  0.18619246  0.92118772    -0.04100
C2297       C  0.62697350  0.15096241  0.91015280    -0.01200
C2298       C  0.62479934  0.14427177  0.87764787     0.03800
C2299       C  0.66992602  0.23552936  0.84451345     0.38400
C2300       C  0.61448019  0.12088231  0.93212373     0.38400
C2301       C  0.61823745  0.10500124  0.86612195     0.36800
C2302       C  0.68234138  0.24665810  0.90947729     0.36800
N2303       N  0.61528312  0.07316764  0.85712049    -0.38000
N2304       N  0.70118191  0.27292995  0.91733842    -0.38000
N2305       N  0.60470411  0.09678612  0.94967027    -0.37400
N2306       N  0.68410388  0.25638319  0.82629251    -0.37400
C2307       C  0.63645077  0.17375377  0.64268854    -0.04100
C2308       C  0.62653784  0.14360488  0.62163404    -0.01200
C2309       C  0.62875056  0.15022274  0.58904551     0.03800
C2310       C  0.64528676  0.18532187  0.57753651    -0.04100
C2311       C  0.66172734  0.21231540  0.59901642    -0.01200
C2312       C  0.65566795  0.20727237  0.63139811     0.03800
C2313       C  0.61953816  0.10442867  0.63347319     0.38400
C2314       C  0.68501514  0.24526187  0.58822629     0.38400
C2315       C  0.67151269  0.23504702  0.65353298     0.36800
C2316       C  0.61590802  0.12025217  0.56743019     0.36800
N2317       N  0.68513554  0.25622294  0.67149340    -0.38000
N2318       N  0.60584384  0.09626140  0.55015289    -0.38000
N2319       N  0.70418346  0.27117730  0.57974390    -0.37400
N2320       N  0.61619150  0.07262142  0.64264429    -0.37400
O2321       O  0.66525949  0.71786261  0.03067762    -0.70500
O2322       O  0.63653976  0.78980089  0.46754442    -0.70700
O2323       O  0.63777106  0.78932891  0.03154862    -0.70600
O2324       O  0.66429941  0.71834174  0.46730518    -0.70600
O2325       O  0.60547028  0.69546787  0.46770650    -0.70600
O2326       O  0.57891452  0.76711154  0.03293554    -0.70600
O2327       O  0.57779420  0.76714761  0.46794145    -0.70500
O2328       O  0.60633488  0.69528812  0.03228521    -0.70700
V2329       V  0.64971685  0.75346060  0.99927631     1.35200
V2330       V  0.59315067  0.73160846  0.50020969     1.35200
C2331       C  0.63953795  0.69787410  0.04460878     0.78700
C2332       C  0.60376988  0.78756753  0.45447173     0.78800
C2333       C  0.60543299  0.78712410  0.04568696     0.78600
C2334       C  0.63827688  0.69837502  0.45425219     0.78600
O2335       O  0.70287472  0.98316413  0.46780262    -0.70500
O2336       O  0.73023663  0.55428196  0.03275258    -0.70700
O2337       O  0.73019916  0.55492452  0.46825370    -0.70600
O2338       O  0.70286151  0.98243053  0.03288243    -0.70600
O2339       O  0.51172058  0.96016522  0.03186414    -0.70600
O2340       O  0.53915590  0.53234369  0.46833563    -0.70600
O2341       O  0.53920714  0.53169977  0.03158023    -0.70500
O2342       O  0.51171437  0.96084762  0.46787637    -0.70700
V2343       V  0.71756272  0.51832027  0.50042909     1.35200
V2344       V  0.52415667  0.49660868  0.99993138     1.35200
C2345       C  0.47923924  0.96322096  0.45438714     0.78700
C2346       C  0.51338428  0.55174607  0.04521279     0.78800
C2347       C  0.51321934  0.55240506  0.45513393     0.78600
C2348       C  0.47921075  0.96223872  0.04577282     0.78600
C2349       C  0.71376601  0.62412963  0.24990644     0.31300
C2350       C  0.54347460  0.62773404  0.24983388     0.31300
C2351       C  0.73458060  0.60466252  0.22180689    -0.04900
C2352       C  0.73179566  0.66601519  0.24971434    -0.05700
C2353       C  0.73405424  0.60477581  0.27820025    -0.05600
C2354       C  0.52496135  0.60647645  0.22226425    -0.04900
C2355       C  0.52227595  0.66801992  0.24970177    -0.05700
C2356       C  0.52445189  0.60659675  0.27761510    -0.05600
C2357       C  0.53853305  0.59275830  0.19421041    -0.31000
N2358       N  0.50793879  0.58463536  0.17586002     0.15500
C2359       C  0.72468841  0.59059836  0.19252729    -0.31000
H2360       H  0.69574387  0.58748216  0.18316995     0.17500
C2361       C  0.53191243  0.70771617  0.24962779    -0.30000
N2362       N  0.49852513  0.72962447  0.24960043     0.14200
C2363       C  0.71792284  0.70429873  0.24962059    -0.30000
C2364       C  0.53761649  0.59259333  0.30558953    -0.30300
N2365       N  0.50678277  0.58420516  0.32408714     0.14700
H2366       H  0.56743139  0.59097583  0.31291037     0.17400
C2367       C  0.72374742  0.59046372  0.30757240    -0.30300
H2368       H  0.69465841  0.58738552  0.31707036     0.17400
H2369       H  0.68768740  0.71292832  0.24963944     0.17400
H2370       H  0.56842981  0.59111724  0.18676654     0.17400
H2371       H  0.56107273  0.71948722  0.24965327     0.17400
C2372       C  0.53042967  0.87709561  0.24999034     0.31300
C2373       C  0.70078875  0.87321922  0.25004810     0.31300
C2374       C  0.51022912  0.89681443  0.22207650    -0.04900
C2375       C  0.51250003  0.83513916  0.25004349    -0.05700
C2376       C  0.50964948  0.89676884  0.27785000    -0.05600
C2377       C  0.72001371  0.89444995  0.22190342    -0.04900
C2378       C  0.72204062  0.83301723  0.25003524    -0.05700
C2379       C  0.71943624  0.89440841  0.27817395    -0.05600
C2380       C  0.70787120  0.91130222  0.19426636    -0.31000
N2381       N  0.48934015  0.92408929  0.17752024     0.15500
C2382       C  0.52140343  0.91597043  0.19500987    -0.31000
H2383       H  0.55106549  0.92242350  0.18861525     0.17500
C2384       C  0.71246889  0.79331347  0.24981178    -0.30000
N2385       N  0.49587706  0.77146322  0.24973689     0.14200
C2386       C  0.52643867  0.79685117  0.24987880    -0.30000
C2387       C  0.70688415  0.91153064  0.30577801    -0.30300
N2388       N  0.48814756  0.92438535  0.32230965     0.14700
H2389       H  0.67712592  0.91235002  0.31411023     0.17400
C2390       C  0.52038429  0.91625026  0.30460437    -0.30300
H2391       H  0.54994193  0.92310448  0.31054749     0.17400
H2392       H  0.55668544  0.78825819  0.24981787     0.17400
H2393       H  0.67824971  0.91196592  0.18603500     0.17400
H2394       H  0.68332577  0.78150160  0.24968938     0.17400
C2395       C  0.57577147  0.87786551  0.24999702     0.31300
C2396       C  0.65542194  0.87392890  0.24996390     0.31300
C2397       C  0.59493297  0.85677082  0.22188426    -0.04900
C2398       C  0.59703605  0.91803242  0.24991496    -0.05700
C2399       C  0.59439086  0.85662189  0.27815902    -0.05600
C2400       C  0.63514717  0.85429271  0.22204588    -0.04900
C2401       C  0.63749634  0.91586610  0.24988920    -0.05700
C2402       C  0.63463397  0.85434075  0.27797125    -0.05600
C2403       C  0.64614677  0.83542266  0.19485508    -0.30400
N2404       N  0.61401088  0.82773472  0.17730716     0.15500
C2405       C  0.58265673  0.84047691  0.19413809    -0.31000
H2406       H  0.55302822  0.84014468  0.18592362     0.17500
C2407       C  0.65145842  0.95411089  0.24992557    -0.30000
N2408       N  0.62090015  0.97951747  0.24998986     0.14200
C2409       C  0.58748472  0.95773150  0.24997198    -0.30000
C2410       C  0.64530078  0.83587400  0.30533074    -0.30300
N2411       N  0.61290155  0.82794464  0.32292484     0.14700
H2412       H  0.67485770  0.82983927  0.31191625     0.17400
C2413       C  0.58170311  0.84018959  0.30603142    -0.30300
H2414       H  0.55191426  0.83943463  0.31432551     0.17400
H2415       H  0.55833516  0.96959267  0.25004472     0.17400
H2416       H  0.67577023  0.82882145  0.18844520     0.17400
H2417       H  0.68169199  0.96266755  0.24994791     0.17400
C2418       C  0.58876186  0.62678947  0.24978402     0.31300
C2419       C  0.66848281  0.62317607  0.24978156     0.31300
C2420       C  0.60901150  0.64635173  0.27780961    -0.04900
C2421       C  0.60682230  0.58491801  0.24998457    -0.05700
C2422       C  0.60958915  0.64613947  0.22152872    -0.05600
C2423       C  0.64939765  0.64450529  0.27729172    -0.04900
C2424       C  0.64730903  0.58289464  0.24998411    -0.05700
C2425       C  0.64998014  0.64430998  0.22200475    -0.05600
C2426       C  0.66250990  0.65914016  0.30496376    -0.31000
N2427       N  0.63160635  0.66790591  0.32321835     0.15500
C2428       C  0.59861244  0.66132541  0.30681977    -0.31000
H2429       H  0.56950469  0.66454072  0.31624458     0.17500
C2430       C  0.65695113  0.54319726  0.25004745    -0.30000
N2431       N  0.62356190  0.52133283  0.25008952     0.14200
C2432       C  0.59294924  0.54666583  0.25007594    -0.30000
C2433       C  0.66358431  0.65888312  0.19415162    -0.30300
N2434       N  0.63300057  0.66750328  0.17586196     0.14700
H2435       H  0.69351180  0.66069837  0.18673143     0.17400
C2436       C  0.59972970  0.66105723  0.19244067    -0.30300
H2437       H  0.57078057  0.66437190  0.18310444     0.17400
H2438       H  0.56272665  0.53806658  0.25005768     0.17400
H2439       H  0.69230000  0.66088565  0.31230791     0.17400
H2440       H  0.68612466  0.53139169  0.24998852     0.17400
C2441       C  0.48669083  0.93662227  0.35514422    -0.04100
C2442       C  0.51211815  0.91993117  0.37745782    -0.01200
C2443       C  0.50365127  0.92183048  0.40976852     0.03800
C2444       C  0.47568888  0.94872798  0.42123008    -0.04100
C2445       C  0.70248817  0.96910582  0.39896319    -0.01200
C2446       C  0.70666764  0.96147454  0.36636625     0.03800
C2447       C  0.54992452  0.90583447  0.36823334     0.38400
C2448       C  0.67649920  0.00027207  0.40893338     0.38400
C2449       C  0.68243035  0.98221446  0.34413844     0.36800
C2450       C  0.52560479  0.89726994  0.43121578     0.36800
N2451       N  0.66305131  0.99876300  0.32641856    -0.38000
N2452       N  0.54317147  0.87771631  0.44822220    -0.38000
N2453       N  0.65630997  0.02565991  0.41677040    -0.37400
N2454       N  0.58155134  0.89785616  0.36164405    -0.37400
C2455       C  0.48792960  0.93634164  0.14472810    -0.04100
C2456       C  0.51303471  0.91933354  0.12208387    -0.01200
C2457       C  0.50403013  0.92082026  0.08997403     0.03800
C2458       C  0.47570071  0.94738736  0.07890016    -0.04100
C2459       C  0.70236093  0.96750416  0.10141854    -0.01200
C2460       C  0.70759969  0.96088078  0.13396806     0.03800
C2461       C  0.55077635  0.90483502  0.13068587     0.38400
C2462       C  0.67450645  0.99691591  0.09161189     0.38400
C2463       C  0.68396464  0.98219243  0.15653710     0.36800
C2464       C  0.52538453  0.89582760  0.06827075     0.36800
N2465       N  0.66509046  0.99922150  0.17451453    -0.38000
N2466       N  0.54233080  0.87580247  0.05105171    -0.38000
N2467       N  0.65265945  0.02080598  0.08386611    -0.37400
N2468       N  0.58234112  0.89630996  0.13662787    -0.37400
C2469       C  0.51855877  0.56517350  0.42218311    -0.04100
C2470       C  0.53526592  0.53853658  0.40030576    -0.01200
C2471       C  0.52951229  0.54407352  0.36803533     0.03800
C2472       C  0.50990464  0.57750772  0.35721314    -0.04100
C2473       C  0.74924811  0.60712860  0.37866845    -0.01200
C2474       C  0.75152652  0.60015333  0.41117640     0.03800
C2475       C  0.55819583  0.50519524  0.41056970     0.38400
C2476       C  0.74132965  0.64624429  0.36726765     0.38400
C2477       C  0.73798306  0.62951521  0.43325646     0.36800
C2478       C  0.54583509  0.51671865  0.34555006     0.36800
N2479       N  0.72733791  0.65283459  0.45104394    -0.38000
N2480       N  0.55982221  0.49580410  0.32736843    -0.38000
N2481       N  0.73727785  0.67806772  0.35839921    -0.37400
N2482       N  0.57695988  0.97890155  0.41866284    -0.37400
C2483       C  0.51917794  0.56475714  0.07789535    -0.04100
C2484       C  0.50323177  0.60035750  0.08877715    -0.01200
C2485       C  0.50132862  0.60770266  0.12124713     0.03800
C2486       C  0.51134507  0.57795900  0.14278339    -0.04100
C2487       C  0.78011346  0.54400922  0.13203709    -0.01200
C2488       C  0.78547891  0.53799762  0.09975482     0.03800
C2489       C  0.49051958  0.62991435  0.06659250     0.38400
C2490       C  0.79586588  0.51655867  0.15460683     0.38400
C2491       C  0.80762068  0.50409185  0.08946646     0.36800
C2492       C  0.49419357  0.64704829  0.13244780     0.36800
N2493       N  0.82583989  0.97734176  0.08139386    -0.38000
N2494       N  0.49066117  0.67896596  0.14116566    -0.38000
N2495       N  0.80934468  0.49566191  0.17294983    -0.37400
N2496       N  0.48058370  0.65344624  0.04874935    -0.37400
C2497       C  0.59938840  0.80284530  0.42161911    -0.04100
C2498       C  0.62609407  0.83122247  0.41058292    -0.01200
C2499       C  0.63501465  0.83383321  0.37840578     0.03800
C2500       C  0.61097880  0.81600297  0.35580810    -0.04100
C2501       C  0.58189612  0.78977992  0.36656780    -0.01200
C2502       C  0.57720294  0.78192833  0.39910579     0.03800
C2503       C  0.64591171  0.85696907  0.43236156     0.38400
C2504       C  0.55974722  0.76761043  0.34390571     0.38400
C2505       C  0.55158452  0.75027723  0.40879713     0.36800
C2506       C  0.67226336  0.84959213  0.36965133     0.36800
N2507       N  0.53149048  0.72462773  0.41631632    -0.38000
N2508       N  0.70369992  0.85877314  0.36359724    -0.38000
N2509       N  0.54225961  0.74977272  0.32579071    -0.37400
N2510       N  0.66154825  0.87775124  0.44957017    -0.37400
C2511       C  0.60212168  0.80195793  0.07876597    -0.04100
C2512       C  0.57887074  0.78193126  0.10148119    -0.01200
C2513       C  0.58257530  0.79039816  0.13387827     0.03800
C2514       C  0.61252136  0.81544177  0.14453948    -0.04100
C2515       C  0.63799329  0.83190609  0.12182384    -0.01200
C2516       C  0.62998131  0.82910464  0.08959422     0.03800
C2517       C  0.55348943  0.75009718  0.09223631     0.38400
C2518       C  0.67508865  0.84756187  0.13068198     0.38400
C2519       C  0.65206859  0.85323549  0.06762061     0.36800
C2520       C  0.55746822  0.77066395  0.15640824     0.36800
N2521       N  0.66975765  0.87252775  0.05026541    -0.38000
N2522       N  0.53711087  0.75502876  0.17421339    -0.38000
N2523       N  0.70625134  0.85700760  0.13694016    -0.37400
N2524       N  0.53388139  0.72412145  0.08500359    -0.37400
C2525       C  0.63457257  0.67441887  0.35627896    -0.04100
C2526       C  0.65358909  0.70807942  0.36705688    -0.01200
C2527       C  0.65945282  0.71333510  0.39930400     0.03800
C2528       C  0.64330149  0.68618077  0.42118420    -0.04100
C2529       C  0.62699471  0.65094582  0.41014747    -0.01200
C2530       C  0.62481479  0.64426008  0.37764177     0.03800
C2531       C  0.66991032  0.73553432  0.34451115     0.38400
C2532       C  0.61452052  0.62085711  0.43211776     0.38400
C2533       C  0.61825675  0.60499066  0.36611186     0.36800
C2534       C  0.68232594  0.74666295  0.40947454     0.36800
N2535       N  0.61530368  0.57315912  0.35710551    -0.38000
N2536       N  0.70115905  0.77294089  0.41733432    -0.38000
N2537       N  0.60476072  0.59675564  0.44966552    -0.37400
N2538       N  0.68408292  0.75639172  0.32629028    -0.37400
C2539       C  0.63644173  0.67374779  0.14268112    -0.04100
C2540       C  0.62651902  0.64360548  0.12162364    -0.01200
C2541       C  0.62872994  0.65022926  0.08903587     0.03800
C2542       C  0.64527559  0.68532574  0.07753063    -0.04100
C2543       C  0.66172579  0.71231003  0.09901289    -0.01200
C2544       C  0.65566562  0.70726388  0.13139382     0.03800
C2545       C  0.61951419  0.60442799  0.13345777     0.38400
C2546       C  0.68502503  0.74524970  0.08822600     0.38400
C2547       C  0.67151427  0.73503354  0.15353101     0.36800
C2548       C  0.61587838  0.62026568  0.06741773     0.36800
N2549       N  0.68513868  0.75620584  0.17149341    -0.38000
N2550       N  0.60580717  0.59627929  0.05013922    -0.38000
N2551       N  0.70420240  0.77115943  0.07974591    -0.37400
N2552       N  0.61616461  0.57261863  0.14262337    -0.37400
O2553       O  0.66526418  0.71785350  0.53067815    -0.70500
O2554       O  0.63656135  0.78982233  0.96754421    -0.70700
O2555       O  0.63775272  0.78931029  0.53154673    -0.70600
O2556       O  0.66429674  0.71835288  0.96730646    -0.70600
O2557       O  0.60545909  0.69550117  0.96770435    -0.70600
O2558       O  0.57890234  0.76707619  0.53293452    -0.70600
O2559       O  0.57780756  0.76719063  0.96794312    -0.70500
O2560       O  0.60634607  0.69526199  0.53228870    -0.70700
V2561       V  0.64970885  0.75344459  0.49927566     1.35200
V2562       V  0.59315158  0.73164301  0.00020892     1.35200
C2563       C  0.63954830  0.69786047  0.54461213     0.78700
C2564       C  0.60379081  0.78759877  0.95447139     0.78800
C2565       C  0.60541469  0.78709923  0.54568417     0.78600
C2566       C  0.63826836  0.69839469  0.95425282     0.78600
O2567       O  0.70283807  0.98315026  0.96780513    -0.70500
O2568       O  0.73026153  0.55429571  0.53275128    -0.70700
O2569       O  0.73017097  0.55491107  0.96825504    -0.70600
O2570       O  0.70289641  0.98244303  0.53287908    -0.70600
O2571       O  0.51175919  0.96018627  0.53186431    -0.70600
O2572       O  0.53912466  0.53232171  0.96833842    -0.70600
O2573       O  0.53923626  0.53172424  0.53158095    -0.70500
O2574       O  0.51167386  0.96082726  0.96787888    -0.70700
V2575       V  0.71753069  0.51830864  0.00043088     1.35200
V2576       V  0.52419229  0.49662970  0.49993068     1.35200
C2577       C  0.47919922  0.96320398  0.95438993     0.78700
C2578       C  0.51340922  0.55176622  0.54521330     0.78800
C2579       C  0.51319123  0.55238661  0.95513662     0.78600
C2580       C  0.47924745  0.96225494  0.54577108     0.78600
C2581       C  0.71376773  0.62413126  0.74991275     0.31300
C2582       C  0.54347632  0.62773656  0.74983954     0.31300
C2583       C  0.73458209  0.60466528  0.72181253    -0.04900
C2584       C  0.73179699  0.66601727  0.74972179    -0.05700
C2585       C  0.73405636  0.60477656  0.77820585    -0.05600
C2586       C  0.52496276  0.60647967  0.72226995    -0.04900
C2587       C  0.52227734  0.66802233  0.74970825    -0.05700
C2588       C  0.52445419  0.60659827  0.77762096    -0.05600
C2589       C  0.53853430  0.59276703  0.69421454    -0.31000
N2590       N  0.50794028  0.58464558  0.67586361     0.15500
C2591       C  0.72468982  0.59060519  0.69253143    -0.31000
H2592       H  0.69574535  0.58748958  0.68317406     0.17500
C2593       C  0.53191343  0.70771880  0.74963267    -0.30000
N2594       N  0.49852602  0.72962698  0.74960514     0.14200
C2595       C  0.71792384  0.70430093  0.74962772    -0.30000
C2596       C  0.53761904  0.59259102  0.80559438    -0.30300
N2597       N  0.50678522  0.58419923  0.82409103     0.14700
H2598       H  0.56743391  0.59097338  0.81291493     0.17400
C2599       C  0.72374958  0.59046031  0.80757652    -0.30300
H2600       H  0.69466025  0.58738115  0.81707421     0.17400
H2601       H  0.68768840  0.71293025  0.74964659     0.17400
H2602       H  0.56843095  0.59112862  0.68676988     0.17400
H2603       H  0.56107372  0.71949007  0.74965616     0.17400
C2604       C  0.53042929  0.87709920  0.74999238     0.31300
C2605       C  0.70078881  0.87322232  0.75004114     0.31300
C2606       C  0.51023255  0.89682033  0.72207744    -0.04900
C2607       C  0.51249998  0.83514246  0.75004268    -0.05700
C2608       C  0.50964460  0.89677046  0.77785154    -0.05600
C2609       C  0.72001765  0.89445455  0.72189933    -0.04900
C2610       C  0.72204090  0.83302037  0.75003012    -0.05700
C2611       C  0.71943175  0.89441061  0.77817015    -0.05600
C2612       C  0.70788007  0.91131087  0.69426222    -0.31000
N2613       N  0.48935203  0.92410222  0.67752103     0.15500
C2614       C  0.52141149  0.91598245  0.69501475    -0.31000
H2615       H  0.55107443  0.92244032  0.68862593     0.17500
C2616       C  0.71246942  0.79331639  0.74980824    -0.30000
N2617       N  0.49587763  0.77146595  0.74973807     0.14200
C2618       C  0.52643887  0.79685434  0.74988265    -0.30000
C2619       C  0.70687388  0.91152840  0.80577456    -0.30300
N2620       N  0.48813164  0.92437884  0.82231213     0.14700
H2621       H  0.67711416  0.91234591  0.81410363     0.17400
C2622       C  0.52037295  0.91624658  0.80461070    -0.30300
H2623       H  0.54992935  0.92309763  0.81056029     0.17400
H2624       H  0.55668580  0.78826154  0.74982745     0.17400
H2625       H  0.67825960  0.91197602  0.68602783     0.17400
H2626       H  0.68332627  0.78150437  0.74968337     0.17400
C2627       C  0.57577137  0.87786810  0.74999707     0.31300
C2628       C  0.65542205  0.87393137  0.74995445     0.31300
C2629       C  0.59492843  0.85677487  0.72188061    -0.04900
C2630       C  0.59703597  0.91803473  0.74991472    -0.05700
C2631       C  0.59439562  0.85662285  0.77815576    -0.05600
C2632       C  0.63514319  0.85429816  0.72203648    -0.04900
C2633       C  0.63749626  0.91586843  0.74988400    -0.05700
C2634       C  0.63463840  0.85434014  0.77796202    -0.05600
C2635       C  0.64613712  0.83543191  0.69484199    -0.30400
N2636       N  0.61399688  0.82774147  0.67729918     0.15500
C2637       C  0.58264627  0.84048053  0.69413581    -0.31000
H2638       H  0.55301563  0.84014586  0.68592595     0.17500
C2639       C  0.65145826  0.95411316  0.74992073    -0.30000
N2640       N  0.62089987  0.97951957  0.74999010     0.14200
C2641       C  0.58748440  0.95773366  0.74997529    -0.30000
C2642       C  0.64531168  0.83587099  0.80531849    -0.30300
N2643       N  0.61291714  0.82794493  0.82291844     0.14700
H2644       H  0.67486976  0.82983144  0.81189714     0.17400
C2645       C  0.58171463  0.84019232  0.80603050    -0.30300
H2646       H  0.55192793  0.83944046  0.81432967     0.17400
H2647       H  0.55833508  0.96959466  0.75005240     0.17400
H2648       H  0.67575981  0.82883617  0.68842536     0.17400
H2649       H  0.68169179  0.96266991  0.74993962     0.17400
C2650       C  0.58876369  0.62679175  0.74978843     0.31300
C2651       C  0.66848461  0.62317736  0.74978741     0.31300
C2652       C  0.60901291  0.64635163  0.77781501    -0.04900
C2653       C  0.60682364  0.58492001  0.74998757    -0.05700
C2654       C  0.60959227  0.64614384  0.72153410    -0.05600
C2655       C  0.64939900  0.64450419  0.77729813    -0.04900
C2656       C  0.64731037  0.58289620  0.74998765    -0.05700
C2657       C  0.64998321  0.64431423  0.72201146    -0.05600
C2658       C  0.66251077  0.65913951  0.80497001    -0.31000
N2659       N  0.63160662  0.66790844  0.82322284     0.15500
C2660       C  0.59861300  0.66132764  0.80682396    -0.31000
H2661       H  0.56950504  0.66454495  0.81624762     0.17500
C2662       C  0.65695207  0.54319884  0.75005094    -0.30000
N2663       N  0.62356276  0.52133473  0.75009231     0.14200
C2664       C  0.59295014  0.54666790  0.75007853    -0.30000
C2665       C  0.66358959  0.65889180  0.69416042    -0.30300
N2666       N  0.63300757  0.66751363  0.67586953     0.14700
H2667       H  0.69351765  0.66070747  0.68674192     0.17400
C2668       C  0.59973537  0.66106479  0.69244623    -0.30300
H2669       H  0.57078697  0.66437884  0.68310831     0.17400
H2670       H  0.56272788  0.53806892  0.75005980     0.17400
H2671       H  0.69230073  0.66088403  0.81231535     0.17400
H2672       H  0.68612565  0.53139298  0.74999297     0.17400
C2673       C  0.48666517  0.93660927  0.85514820    -0.04100
C2674       C  0.51208609  0.91991440  0.87746454    -0.01200
C2675       C  0.50361281  0.92181191  0.90977411     0.03800
C2676       C  0.47565021  0.94871112  0.92123314    -0.04100
C2677       C  0.70245745  0.96909290  0.89896439    -0.01200
C2678       C  0.70664359  0.96146433  0.86636742     0.03800
C2679       C  0.54989092  0.90580951  0.86824445     0.38400
C2680       C  0.67647065  0.00026220  0.90893289     0.38400
C2681       C  0.68241552  0.98221156  0.84413743     0.36800
C2682       C  0.52556448  0.89725152  0.93122315     0.36800
N2683       N  0.66304449  0.99876746  0.82641620    -0.38000
N2684       N  0.54313221  0.87769943  0.94823003    -0.38000
N2685       N  0.65628379  0.02565282  0.91676837    -0.37400
N2686       N  0.58151735  0.89782241  0.86166118    -0.37400
C2687       C  0.48794942  0.93635734  0.64472894    -0.04100
C2688       C  0.51306065  0.91935137  0.62208793    -0.01200
C2689       C  0.50406357  0.92083832  0.58997634     0.03800
C2690       C  0.47573345  0.94740191  0.57889840    -0.04100
C2691       C  0.70238582  0.96751375  0.60141407    -0.01200
C2692       C  0.70761994  0.96089236  0.63396450     0.03800
C2693       C  0.55080289  0.90486031  0.63069577     0.38400
C2694       C  0.67452590  0.99691802  0.59160373     0.38400
C2695       C  0.68398189  0.98220483  0.65653088     0.36800
C2696       C  0.52542336  0.89584656  0.56827614     0.36800
N2697       N  0.66510706  0.99923511  0.67450708    -0.38000
N2698       N  0.54237288  0.87582031  0.55106004    -0.38000
N2699       N  0.65267445  0.02080194  0.58385432    -0.37400
N2700       N  0.58236767  0.89634377  0.63664529    -0.37400
C2701       C  0.51853638  0.56515609  0.92218714    -0.04100
C2702       C  0.53524685  0.53851930  0.90031117    -0.01200
C2703       C  0.52950475  0.54406143  0.86803998     0.03800
C2704       C  0.50990460  0.57749977  0.85721684    -0.04100
C2705       C  0.74924635  0.60712075  0.87867189    -0.01200
C2706       C  0.75151265  0.60014132  0.91117971     0.03800
C2707       C  0.55816980  0.50517375  0.91057730     0.38400
C2708       C  0.74133926  0.64623958  0.86727235     0.38400
C2709       C  0.73796450  0.62950253  0.93325855     0.36800
C2710       C  0.54583457  0.51670870  0.84555635     0.36800
N2711       N  0.72731458  0.65282256  0.95104364    -0.38000
N2712       N  0.55982982  0.49579482  0.82737826    -0.38000
N2713       N  0.73729628  0.67806513  0.85840603    -0.37400
N2714       N  0.57693077  0.97887845  0.91867253    -0.37400
C2715       C  0.51919639  0.56477649  0.57789772    -0.04100
C2716       C  0.50324271  0.60037348  0.58878023    -0.01200
C2717       C  0.50133151  0.60771505  0.62125081     0.03800
C2718       C  0.51134841  0.57797115  0.64278664    -0.04100
C2719       C  0.78012418  0.54402573  0.63204025    -0.01200
C2720       C  0.78549531  0.53801665  0.59975809     0.03800
C2721       C  0.49053203  0.62993142  0.56659608     0.38400
C2722       C  0.79587734  0.51657651  0.65461095     0.38400
C2723       C  0.80763947  0.50411225  0.58947110     0.36800
C2724       C  0.49419100  0.64705876  0.63245340     0.36800
N2725       N  0.82586156  0.97736509  0.58139938    -0.38000
N2726       N  0.49065551  0.67897494  0.64117380    -0.38000
N2727       N  0.80935580  0.49568181  0.67295571    -0.37400
N2728       N  0.48059782  0.65346497  0.54875372    -0.37400
C2729       C  0.59941495  0.80286797  0.92161561    -0.04100
C2730       C  0.62612880  0.83123362  0.91057284    -0.01200
C2731       C  0.63504936  0.83383094  0.87839473     0.03800
C2732       C  0.61100308  0.81600461  0.85580207    -0.04100
C2733       C  0.58191534  0.78979170  0.86656782    -0.01200
C2734       C  0.57722360  0.78194939  0.89910696     0.03800
C2735       C  0.64594861  0.85698575  0.93234542     0.38400
C2736       C  0.55975823  0.76762322  0.84391037     0.38400
C2737       C  0.55159956  0.75030570  0.90880425     0.36800
C2738       C  0.67231063  0.84955717  0.86963538     0.36800
N2739       N  0.53150163  0.72466143  0.91632826    -0.38000
N2740       N  0.70375410  0.85870713  0.86357285    -0.38000
N2741       N  0.54226416  0.74978787  0.82579797    -0.37400
N2742       N  0.66158302  0.87777393  0.94955066    -0.37400
C2743       C  0.60209838  0.80194225  0.57876026    -0.04100
C2744       C  0.57885535  0.78191495  0.60148013    -0.01200
C2745       C  0.58255890  0.79039297  0.63387581     0.03800
C2746       C  0.61249967  0.81544749  0.64453148    -0.04100
C2747       C  0.63796125  0.83191701  0.62181076    -0.01200
C2748       C  0.62994805  0.82910320  0.58958208     0.03800
C2749       C  0.55348514  0.75006911  0.59224125     0.38400
C2750       C  0.67504603  0.84760125  0.63066354     0.38400
C2751       C  0.65202636  0.85323523  0.56760295     0.36800
C2752       C  0.55745586  0.77066041  0.65640946     0.36800
N2753       N  0.66971025  0.87252866  0.55024507    -0.38000
N2754       N  0.53710046  0.75502604  0.67421649    -0.38000
N2755       N  0.70620278  0.85707291  0.63691495    -0.37400
N2756       N  0.53388640  0.72408473  0.58501192    -0.37400
C2757       C  0.63457152  0.67442512  0.85628272    -0.04100
C2758       C  0.65359792  0.70808086  0.86705915    -0.01200
C2759       C  0.65945910  0.71333836  0.89930625     0.03800
C2760       C  0.64329311  0.68619370  0.92118704    -0.04100
C2761       C  0.62697407  0.65096373  0.91015215    -0.01200
C2762       C  0.62480005  0.64427297  0.87764723     0.03800
C2763       C  0.66992822  0.73552989  0.84451282     0.38400
C2764       C  0.61448058  0.62088373  0.93212312     0.38400
C2765       C  0.61823809  0.60500240  0.86612146     0.36800
C2766       C  0.68234264  0.74665896  0.90947665     0.36800
N2767       N  0.61528374  0.57316871  0.85712023    -0.38000
N2768       N  0.70118338  0.77293069  0.91733770    -0.38000
N2769       N  0.60470442  0.59678753  0.94966962    -0.37400
N2770       N  0.68410690  0.75638353  0.82629216    -0.37400
C2771       C  0.63645169  0.67375307  0.64268802    -0.04100
C2772       C  0.62653908  0.64360405  0.62163354    -0.01200
C2773       C  0.62875206  0.65022178  0.58904503     0.03800
C2774       C  0.64528848  0.68532082  0.57753612    -0.04100
C2775       C  0.66172883  0.71231445  0.59901604    -0.01200
C2776       C  0.65566889  0.70727166  0.63139766     0.03800
C2777       C  0.61953944  0.60442786  0.63347272     0.38400
C2778       C  0.68501659  0.74526099  0.58822602     0.38400
C2779       C  0.67151298  0.73504659  0.65353262     0.36800
C2780       C  0.61590890  0.62025150  0.56742967     0.36800
N2781       N  0.68513510  0.75622270  0.67149324    -0.38000
N2782       N  0.60584399  0.59626113  0.55015227    -0.38000
N2783       N  0.70418473  0.77117667  0.57974387    -0.37400
N2784       N  0.61619293  0.57262063  0.64264387    -0.37400
O2785       O  0.91525801  0.21786213  0.03067797    -0.70500
O2786       O  0.88653914  0.28980258  0.46754456    -0.70700
O2787       O  0.88776810  0.28932792  0.03154868    -0.70600
O2788       O  0.91429878  0.21834351  0.46730576    -0.70600
O2789       O  0.85546940  0.19547029  0.46770633    -0.70600
O2790       O  0.82891197  0.26710953  0.03293571    -0.70600
O2791       O  0.82779331  0.26715003  0.46794194    -0.70500
O2792       O  0.85633379  0.19528660  0.03228585    -0.70700
V2793       V  0.89971458  0.25345958  0.99927658     1.35200
V2794       V  0.84314968  0.23161042  0.50020988     1.35200
C2795       C  0.88953689  0.19787329  0.04460929     0.78700
C2796       C  0.85376916  0.28756948  0.45447199     0.78800
C2797       C  0.85543004  0.28712282  0.04568698     0.78600
C2798       C  0.88827629  0.19837711  0.45425241     0.78600
O2799       O  0.95287277  0.48316297  0.46780308    -0.70500
O2800       O  0.98023711  0.05428091  0.03275290    -0.70700
O2801       O  0.98019980  0.05492615  0.46825357    -0.70600
O2802       O  0.95286067  0.48243246  0.03288242    -0.70600
O2803       O  0.76171831  0.46016640  0.03186413    -0.70600
O2804       O  0.78915621  0.03234592  0.46833594    -0.70600
O2805       O  0.78920855  0.03169989  0.03158074    -0.70500
O2806       O  0.76171190  0.46084436  0.46787737    -0.70700
V2807       V  0.96756361  0.01832180  0.50042886     1.35200
V2808       V  0.77415875  0.99660860  0.99993185     1.35200
C2809       C  0.72923702  0.46321846  0.45438787     0.78700
C2810       C  0.76338538  0.05174581  0.04521327     0.78800
C2811       C  0.76321930  0.05240669  0.45513415     0.78600
C2812       C  0.72920852  0.46224055  0.04577281     0.78600
C2813       C  0.96376672  0.12412991  0.24990655     0.31300
C2814       C  0.79347533  0.12773475  0.24983433     0.31300
C2815       C  0.98458141  0.10466318  0.22180686    -0.04900
C2816       C  0.98179622  0.16601547  0.24971462    -0.05700
C2817       C  0.98405504  0.10477598  0.27820020    -0.05600
C2818       C  0.77496228  0.10647726  0.22226459    -0.04900
C2819       C  0.77227645  0.16802055  0.24970227    -0.05700
C2820       C  0.77445264  0.10659725  0.27761536    -0.05600
C2821       C  0.78853418  0.09275927  0.19421080    -0.31000
N2822       N  0.75794007  0.08463643  0.17586026     0.15500
C2823       C  0.97468940  0.09059928  0.19252712    -0.31000
H2824       H  0.94574493  0.08748289  0.18316973     0.17500
C2825       C  0.78191252  0.20771690  0.24962817    -0.30000
N2826       N  0.74852499  0.22962484  0.24960048     0.14200
C2827       C  0.96792304  0.20429884  0.24962094    -0.30000
C2828       C  0.78761726  0.09259419  0.30558988    -0.30300
N2829       N  0.75678341  0.08420596  0.32408736     0.14700
H2830       H  0.81743187  0.09097700  0.31291081     0.17400
C2831       C  0.97374832  0.09046393  0.30757235    -0.30300
H2832       H  0.94465936  0.08738586  0.31707046     0.17400
H2833       H  0.93768757  0.21292815  0.24963964     0.17400
H2834       H  0.81843104  0.09111809  0.18676710     0.17400
H2835       H  0.81107275  0.21948827  0.24965370     0.17400
C2836       C  0.78042806  0.37709613  0.24999019     0.31300
C2837       C  0.95078728  0.37321943  0.25004798     0.31300
C2838       C  0.76022727  0.39681505  0.22207639    -0.04900
C2839       C  0.76249866  0.33513958  0.25004319    -0.05700
C2840       C  0.75964778  0.39676901  0.27784996    -0.05600
C2841       C  0.97001221  0.39445045  0.22190337    -0.04900
C2842       C  0.97203933  0.33301746  0.25003514    -0.05700
C2843       C  0.96943472  0.39440856  0.27817394    -0.05600
C2844       C  0.95786971  0.41130305  0.19426639    -0.31000
N2845       N  0.73933768  0.42409013  0.17752025     0.15500
C2846       C  0.77140114  0.41597130  0.19500973    -0.31000
H2847       H  0.80106325  0.42242440  0.18861491     0.17500
C2848       C  0.96246801  0.29331353  0.24981200    -0.30000
N2849       N  0.74587640  0.27146355  0.24973668     0.14200
C2850       C  0.77643772  0.29685177  0.24987857    -0.30000
C2851       C  0.95688268  0.41153012  0.30577829    -0.30300
N2852       N  0.73814579  0.42438435  0.32231005     0.14700
H2853       H  0.92712448  0.41234925  0.31411058     0.17400
C2854       C  0.77038253  0.41624983  0.30460463    -0.30300
H2855       H  0.79994015  0.42310396  0.31054790     0.17400
H2856       H  0.80668452  0.28825912  0.24981772     0.17400
H2857       H  0.92824801  0.41196697  0.18603502     0.17400
H2858       H  0.93332502  0.28150138  0.24968967     0.17400
C2859       C  0.82576994  0.37786598  0.24999699     0.31300
C2860       C  0.90542046  0.37392907  0.24996368     0.31300
C2861       C  0.84493132  0.35677138  0.22188417    -0.04900
C2862       C  0.84703466  0.41803277  0.24991487    -0.05700
C2863       C  0.84438943  0.35662218  0.27815895    -0.05600
C2864       C  0.88514550  0.35429304  0.22204564    -0.04900
C2865       C  0.88749495  0.41586630  0.24988904    -0.05700
C2866       C  0.88463255  0.35434093  0.27797103    -0.05600
C2867       C  0.89614481  0.33542302  0.19485467    -0.30400
N2868       N  0.86400864  0.32773529  0.17730693     0.15500
C2869       C  0.83265473  0.34047772  0.19413802    -0.31000
H2870       H  0.80302630  0.34014576  0.18592379     0.17500
C2871       C  0.90145723  0.45411099  0.24992515    -0.30000
N2872       N  0.87089906  0.47951767  0.24998935     0.14200
C2873       C  0.83748354  0.45773186  0.24997159    -0.30000
C2874       C  0.89529958  0.33587424  0.30533049    -0.30300
N2875       N  0.86290051  0.32794486  0.32292474     0.14700
H2876       H  0.92485653  0.32983958  0.31191587     0.17400
C2877       C  0.83170194  0.34018987  0.30603145    -0.30300
H2878       H  0.80191313  0.33943496  0.31432573     0.17400
H2879       H  0.80833392  0.46959318  0.25004418     0.17400
H2880       H  0.92576800  0.32882183  0.18844462     0.17400
H2881       H  0.93169078  0.46266754  0.24994738     0.17400
C2882       C  0.83876254  0.12679003  0.24978461     0.31300
C2883       C  0.91848348  0.12317638  0.24978191     0.31300
C2884       C  0.85901231  0.14635258  0.27781000    -0.04900
C2885       C  0.85682291  0.08491842  0.24998544    -0.05700
C2886       C  0.85958978  0.14613976  0.22152920    -0.05600
C2887       C  0.89939847  0.14450595  0.27729200    -0.04900
C2888       C  0.89730963  0.08289500  0.24998485    -0.05700
C2889       C  0.89998074  0.14431008  0.22200506    -0.05600
C2890       C  0.91251080  0.15914081  0.30496397    -0.31000
N2891       N  0.88160745  0.16790687  0.32321862     0.15500
C2892       C  0.84861337  0.16132640  0.30682017    -0.31000
H2893       H  0.81950589  0.16454169  0.31624500     0.17500
C2894       C  0.90695174  0.04319762  0.25004852    -0.30000
N2895       N  0.87356258  0.02133312  0.25009071     0.14200
C2896       C  0.84294982  0.04666614  0.25007708    -0.30000
C2897       C  0.91358480  0.15888346  0.19415201    -0.30300
N2898       N  0.88300099  0.16750385  0.17586251     0.14700
H2899       H  0.94351234  0.16069880  0.18673173     0.17400
C2900       C  0.84973021  0.16105794  0.19244134    -0.30300
H2901       H  0.82078108  0.16437295  0.18310527     0.17400
H2902       H  0.81272745  0.03806693  0.25005881     0.17400
H2903       H  0.94230120  0.16088604  0.31230810     0.17400
H2904       H  0.93612527  0.03139208  0.24998963     0.17400
C2905       C  0.73668899  0.43662084  0.35514470    -0.04100
C2906       C  0.76211624  0.41992949  0.37745822    -0.01200
C2907       C  0.75364920  0.42182841  0.40976893     0.03800
C2908       C  0.72568688  0.44872598  0.42123062    -0.04100
C2909       C  0.95248672  0.46910463  0.39896382    -0.01200
C2910       C  0.95666614  0.46147338  0.36636688     0.03800
C2911       C  0.79992277  0.40583328  0.36823367     0.38400
C2912       C  0.92649802  0.50027117  0.40893392     0.38400
C2913       C  0.93242866  0.48221324  0.34413916     0.36800
C2914       C  0.77560276  0.39726770  0.43121601     0.36800
N2915       N  0.91304943  0.49876168  0.32641940    -0.38000
N2916       N  0.79316967  0.37771399  0.44822223    -0.38000
N2917       N  0.90630895  0.52565921  0.41677084    -0.37400
N2918       N  0.83154970  0.39785543  0.36164430    -0.37400
C2919       C  0.73792676  0.43634249  0.14472806    -0.04100
C2920       C  0.76303179  0.41933448  0.12208372    -0.01200
C2921       C  0.75402730  0.42082152  0.08997387     0.03800
C2922       C  0.72569808  0.44738885  0.07890006    -0.04100
C2923       C  0.95235962  0.46750553  0.10141849    -0.01200
C2924       C  0.95759839  0.46088209  0.13396802     0.03800
C2925       C  0.80077319  0.40483536  0.13068566     0.38400
C2926       C  0.92450496  0.49691712  0.09161181     0.38400
C2927       C  0.93396362  0.48219405  0.15653704     0.36800
C2928       C  0.77538186  0.39582905  0.06827055     0.36800
N2929       N  0.91508977  0.49922336  0.17451453    -0.38000
N2930       N  0.79232845  0.37580399  0.05105166    -0.38000
N2931       N  0.90265775  0.52080691  0.08386587    -0.37400
N2932       N  0.83233783  0.39630975  0.13662761    -0.37400
C2933       C  0.76855848  0.06517471  0.42218329    -0.04100
C2934       C  0.78526558  0.03853749  0.40030612    -0.01200
C2935       C  0.77951226  0.04407429  0.36803566     0.03800
C2936       C  0.75990507  0.07750867  0.35721332    -0.04100
C2937       C  0.99924882  0.10712934  0.37866799    -0.01200
C2938       C  0.00152687  0.10015439  0.41117596     0.03800
C2939       C  0.80819476  0.00519576  0.41057023     0.38400
C2940       C  0.99133033  0.14624490  0.36726699     0.38400
C2941       C  0.98798210  0.12951592  0.43325576     0.36800
C2942       C  0.79583510  0.01671905  0.34555060     0.36800
N2943       N  0.97733562  0.15283469  0.45104322    -0.38000
N2944       N  0.80982248  0.99580411  0.32736938    -0.38000
N2945       N  0.98727866  0.17806838  0.35839869    -0.37400
N2946       N  0.82695838  0.47889926  0.41866234    -0.37400
C2947       C  0.76917905  0.06475736  0.07789573    -0.04100
C2948       C  0.75323248  0.10035764  0.08877733    -0.01200
C2949       C  0.75132945  0.10770316  0.12124727     0.03800
C2950       C  0.76134653  0.07795994  0.14278369    -0.04100
C2951       C  0.03011509  0.04401059  0.13203710    -0.01200
C2952       C  0.03548035  0.03799886  0.09975481     0.03800
C2953       C  0.74051928  0.12991388  0.06659255     0.38400
C2954       C  0.04586775  0.01656015  0.15460690     0.38400
C2955       C  0.05762230  0.00409317  0.08946648     0.36800
C2956       C  0.74419352  0.14704873  0.13244774     0.36800
N2957       N  0.07583886  0.47734148  0.08139363    -0.38000
N2958       N  0.74066029  0.17896635  0.14116544    -0.38000
N2959       N  0.05934660  0.99566342  0.17294995    -0.37400
N2960       N  0.73058253  0.15344534  0.04874937    -0.37400
C2961       C  0.84938759  0.30284683  0.42161923    -0.04100
C2962       C  0.87609324  0.33122383  0.41058274    -0.01200
C2963       C  0.88501407  0.33383375  0.37840558     0.03800
C2964       C  0.86097803  0.31600340  0.35580807    -0.04100
C2965       C  0.83189518  0.28978071  0.36656804    -0.01200
C2966       C  0.82720202  0.28192959  0.39910612     0.03800
C2967       C  0.89591031  0.35697120  0.43236111     0.38400
C2968       C  0.80974619  0.26761105  0.34390614     0.38400
C2969       C  0.80158364  0.25027861  0.40879777     0.36800
C2970       C  0.92226350  0.34959103  0.36965116     0.36800
N2971       N  0.78148983  0.22462904  0.41631725    -0.38000
N2972       N  0.95370052  0.35877056  0.36359720    -0.38000
N2973       N  0.79225846  0.24977335  0.32579121    -0.37400
N2974       N  0.91154613  0.37775410  0.44956961    -0.37400
C2975       C  0.85211853  0.30195731  0.07876586    -0.04100
C2976       C  0.82886752  0.28193121  0.10148134    -0.01200
C2977       C  0.83257219  0.29039865  0.13387835     0.03800
C2978       C  0.86251859  0.31544211  0.14453928    -0.04100
C2979       C  0.88799024  0.33190628  0.12182337    -0.01200
C2980       C  0.87997814  0.32910423  0.08959380     0.03800
C2981       C  0.80348626  0.25009694  0.09223683     0.38400
C2982       C  0.92508518  0.34756317  0.13068130     0.38400
C2983       C  0.90206520  0.35323483  0.06761989     0.36800
C2984       C  0.80746447  0.27066550  0.15640847     0.36800
N2985       N  0.91975413  0.37252692  0.05026447    -0.38000
N2986       N  0.78710652  0.25503143  0.17421381    -0.38000
N2987       N  0.95624757  0.35700999  0.13693944    -0.37400
N2988       N  0.78387843  0.22412095  0.08500432    -0.37400
C2989       C  0.88457380  0.17441994  0.35627923    -0.04100
C2990       C  0.90359017  0.20808061  0.36705709    -0.01200
C2991       C  0.90945324  0.21333670  0.39930429     0.03800
C2992       C  0.89330152  0.18618258  0.42118449    -0.04100
C2993       C  0.87699521  0.15094740  0.41014781    -0.01200
C2994       C  0.87481566  0.14426139  0.37764211     0.03800
C2995       C  0.91991162  0.23553531  0.34451127     0.38400
C2996       C  0.86452112  0.12085869  0.43211815     0.38400
C2997       C  0.86825702  0.10499203  0.36611234     0.36800
C2998       C  0.93232564  0.24666499  0.40947496     0.36800
N2999       N  0.86530337  0.07316042  0.35710622    -0.38000
N3000       N  0.95115818  0.27294332  0.41733481    -0.38000
N3001       N  0.85476150  0.09675709  0.44966583    -0.37400
N3002       N  0.93408455  0.25639237  0.32629031    -0.37400
C3003       C  0.88644183  0.17374801  0.14268164    -0.04100
C3004       C  0.87651973  0.14360518  0.12162445    -0.01200
C3005       C  0.87873026  0.15022865  0.08903664     0.03800
C3006       C  0.89527502  0.18532541  0.07753114    -0.04100
C3007       C  0.91172480  0.21231032  0.09901313    -0.01200
C3008       C  0.90566499  0.20726433  0.13139408     0.03800
C3009       C  0.86951592  0.10442769  0.13345900     0.38400
C3010       C  0.93502287  0.24525072  0.08822597     0.38400
C3011       C  0.92151344  0.23503424  0.15353111     0.36800
C3012       C  0.86587945  0.12026449  0.06741873     0.36800
N3013       N  0.93513775  0.25620650  0.17149359    -0.38000
N3014       N  0.85580889  0.09627761  0.05014040    -0.38000
N3015       N  0.95419926  0.27116105  0.07974566    -0.37400
N3016       N  0.86616718  0.07261848  0.14262517    -0.37400
O3017       O  0.91526276  0.21785552  0.53067900    -0.70500
O3018       O  0.88655840  0.28982088  0.96754441    -0.70700
O3019       O  0.88775140  0.28931231  0.53154707    -0.70600
O3020       O  0.91429514  0.21835190  0.96730691    -0.70600
O3021       O  0.85545801  0.19549885  0.96770498    -0.70600
O3022       O  0.82890122  0.26707771  0.53293501    -0.70600
O3023       O  0.82780512  0.26718789  0.96794309    -0.70500
O3024       O  0.85634489  0.19526342  0.53228866    -0.70700
V3025       V  0.89970789  0.25344648  0.49927614     1.35200
V3026       V  0.84314975  0.23164088  0.00020928     1.35200
C3027       C  0.88954678  0.19786219  0.54461263     0.78700
C3028       C  0.85378797  0.28759670  0.95447149     0.78800
C3029       C  0.85541350  0.28710083  0.54568467     0.78600
C3030       C  0.88826719  0.19839297  0.95425342     0.78600
O3031       O  0.95283688  0.48315177  0.96780517    -0.70500
O3032       O  0.98026224  0.05429717  0.53275105    -0.70700
O3033       O  0.98017180  0.05491021  0.96825540    -0.70600
O3034       O  0.95289391  0.48244263  0.53287973    -0.70600
O3035       O  0.76175676  0.46018410  0.53186534    -0.70600
O3036       O  0.78912616  0.03232197  0.96833893    -0.70600
O3037       O  0.78923628  0.03172526  0.53158127    -0.70500
O3038       O  0.76167176  0.46082828  0.96787884    -0.70700
V3039       V  0.96753242  0.01830720  0.00043112     1.35200
V3040       V  0.77419287  0.99663117  0.49993046     1.35200
C3041       C  0.72919711  0.46320545  0.95438994     0.78700
C3042       C  0.76340894  0.05176695  0.54521357     0.78800
C3043       C  0.76319248  0.05238662  0.95513721     0.78600
C3044       C  0.72924500  0.46225324  0.54577204     0.78600
C3045       C  0.96376675  0.12413151  0.74991309     0.31300
C3046       C  0.79347536  0.12773637  0.74984008     0.31300
C3047       C  0.98458103  0.10466549  0.72181292    -0.04900
C3048       C  0.98179610  0.16601743  0.74972208    -0.05700
C3049       C  0.98405529  0.10477671  0.77820621    -0.05600
C3050       C  0.77496169  0.10647973  0.72227044    -0.04900
C3051       C  0.77227648  0.16802222  0.74970902    -0.05700
C3052       C  0.77445325  0.10659784  0.77762145    -0.05600
C3053       C  0.78853311  0.09276707  0.69421504    -0.31000
N3054       N  0.75793905  0.08464549  0.67586417     0.15500
C3055       C  0.97468869  0.09060553  0.69253182    -0.31000
H3056       H  0.94574409  0.08749021  0.68317443     0.17500
C3057       C  0.78191268  0.20771870  0.74963336    -0.30000
N3058       N  0.74852529  0.22962693  0.74960584     0.14200
C3059       C  0.96792299  0.20430107  0.74962790    -0.30000
C3060       C  0.78761810  0.09259020  0.80559476    -0.30300
N3061       N  0.75678432  0.08419843  0.82409150     0.14700
H3062       H  0.81743309  0.09097240  0.81291522     0.17400
C3063       C  0.97374842  0.09046044  0.80757689    -0.30300
H3064       H  0.94465921  0.08738120  0.81707452     0.17400
H3065       H  0.93768753  0.21293042  0.74964680     0.17400
H3066       H  0.81842974  0.09112880  0.68677034     0.17400
H3067       H  0.81107294  0.21948991  0.74965673     0.17400
C3068       C  0.78042839  0.37709926  0.74999318     0.31300
C3069       C  0.95078771  0.37322225  0.75004195     0.31300
C3070       C  0.76023162  0.39682026  0.72207827    -0.04900
C3071       C  0.76249917  0.33514243  0.75004355    -0.05700
C3072       C  0.75964367  0.39677058  0.77785230    -0.05600
C3073       C  0.97001632  0.39445455  0.72190013    -0.04900
C3074       C  0.97203990  0.33302039  0.75003087    -0.05700
C3075       C  0.96943066  0.39441069  0.77817086    -0.05600
C3076       C  0.95787838  0.41131076  0.69426310    -0.31000
N3077       N  0.73935096  0.42410196  0.67752190     0.15500
C3078       C  0.77141051  0.41598223  0.69501552    -0.31000
H3079       H  0.80107348  0.42243983  0.68862647     0.17500
C3080       C  0.96246853  0.29331637  0.74980871    -0.30000
N3081       N  0.74587691  0.27146590  0.74973876     0.14200
C3082       C  0.77643818  0.29685430  0.74988335    -0.30000
C3083       C  0.95687269  0.41152896  0.80577500    -0.30300
N3084       N  0.73813042  0.42438038  0.82231228     0.14700
H3085       H  0.92711276  0.41234649  0.81410406     0.17400
C3086       C  0.77037191  0.41624751  0.80461116    -0.30300
H3087       H  0.79992804  0.42309857  0.81056071     0.17400
H3088       H  0.80668489  0.28826157  0.74982801     0.17400
H3089       H  0.92825812  0.41197566  0.68602886     0.17400
H3090       H  0.93332551  0.28150429  0.74968375     0.17400
C3091       C  0.82577039  0.37786834  0.74999777     0.31300
C3092       C  0.90542099  0.37393132  0.74995529     0.31300
C3093       C  0.84492741  0.35677508  0.72188129    -0.04900
C3094       C  0.84703514  0.41803495  0.74991562    -0.05700
C3095       C  0.84439445  0.35662295  0.77815639    -0.05600
C3096       C  0.88514214  0.35429826  0.72203727    -0.04900
C3097       C  0.88749541  0.41586843  0.74988494    -0.05700
C3098       C  0.88463722  0.35434011  0.77796278    -0.05600
C3099       C  0.89613617  0.33543177  0.69484292    -0.30400
N3100       N  0.86399601  0.32774134  0.67730001     0.15500
C3101       C  0.83264529  0.34048043  0.69413652    -0.31000
H3102       H  0.80301476  0.34014553  0.68592667     0.17500
C3103       C  0.90145774  0.45411303  0.74992191    -0.30000
N3104       N  0.87089956  0.47951965  0.74999144     0.14200
C3105       C  0.83748397  0.45773397  0.74997646    -0.30000
C3106       C  0.89531026  0.33587076  0.80531923    -0.30300
N3107       N  0.86291546  0.32794461  0.82291893     0.14700
H3108       H  0.92486817  0.32983125  0.81189806     0.17400
C3109       C  0.83171318  0.34019232  0.80603096    -0.30300
H3110       H  0.80192635  0.33944048  0.81433003     0.17400
H3111       H  0.80833444  0.46959532  0.75005355     0.17400
H3112       H  0.92575877  0.32883589  0.68842647     0.17400
H3113       H  0.93169134  0.46266953  0.74994078     0.17400
C3114       C  0.83876275  0.12679160  0.74978879     0.31300
C3115       C  0.91848367  0.12317762  0.74978769     0.31300
C3116       C  0.85901186  0.14635111  0.77781553    -0.04900
C3117       C  0.85682298  0.08491992  0.74998740    -0.05700
C3118       C  0.85959119  0.14614433  0.72153469    -0.05600
C3119       C  0.89939795  0.14450391  0.77729862    -0.04900
C3120       C  0.89730972  0.08289637  0.74998744    -0.05700
C3121       C  0.89998215  0.14431479  0.72201193    -0.05600
C3122       C  0.91250952  0.15913904  0.80497057    -0.31000
N3123       N  0.88160534  0.16790755  0.82322346     0.15500
C3124       C  0.84861179  0.16132680  0.80682452    -0.31000
H3125       H  0.81950375  0.16454394  0.81624817     0.17500
C3126       C  0.90695178  0.04319908  0.75005024    -0.30000
N3127       N  0.87356263  0.02133474  0.75009138     0.14200
C3128       C  0.84294981  0.04666768  0.75007787    -0.30000
C3129       C  0.91358840  0.15889248  0.69416090    -0.30300
N3130       N  0.88300630  0.16751455  0.67587019     0.14700
H3131       H  0.94351647  0.16070807  0.68674230     0.17400
C3132       C  0.84973417  0.16106544  0.69244693    -0.30300
H3133       H  0.82078574  0.16437928  0.68310906     0.17400
H3134       H  0.81272760  0.03806851  0.75005914     0.17400
H3135       H  0.94229966  0.16088382  0.81231596     0.17400
H3136       H  0.93612539  0.03139349  0.74999217     0.17400
C3137       C  0.73666375  0.43661124  0.85514826    -0.04100
C3138       C  0.76208425  0.41991616  0.87746480    -0.01200
C3139       C  0.75361028  0.42181311  0.90977427     0.03800
C3140       C  0.72564780  0.44871243  0.92123321    -0.04100
C3141       C  0.95245527  0.46909377  0.89896447    -0.01200
C3142       C  0.95664177  0.46146545  0.86636748     0.03800
C3143       C  0.79988900  0.40581065  0.86824511     0.38400
C3144       C  0.92646753  0.50026217  0.90893315     0.38400
C3145       C  0.93241329  0.48221222  0.84413747     0.36800
C3146       C  0.77556062  0.39725152  0.93122332     0.36800
N3147       N  0.91304182  0.49876780  0.82641638    -0.38000
N3148       N  0.79312697  0.37769811  0.94823019    -0.38000
N3149       N  0.90627983  0.52565192  0.91676903    -0.37400
N3150       N  0.83151524  0.39782251  0.86166212    -0.37400
C3151       C  0.73794804  0.43635675  0.64472978    -0.04100
C3152       C  0.76305855  0.41935010  0.62208864    -0.01200
C3153       C  0.75406065  0.42083634  0.58997721     0.03800
C3154       C  0.72573080  0.44740030  0.57889936    -0.04100
C3155       C  0.95238264  0.46751321  0.60141505    -0.01200
C3156       C  0.95761736  0.46089227  0.63396551     0.03800
C3157       C  0.80080083  0.40485899  0.63069614     0.38400
C3158       C  0.92452216  0.49691690  0.59160470     0.38400
C3159       C  0.93397974  0.48220492  0.65653210     0.36800
C3160       C  0.77541916  0.39584346  0.56827702     0.36800
N3161       N  0.91510531  0.49923513  0.67450864    -0.38000
N3162       N  0.79236737  0.37581626  0.55106078    -0.38000
N3163       N  0.90267019  0.52080041  0.58385544    -0.37400
N3164       N  0.83236567  0.39634259  0.63664550    -0.37400
C3165       C  0.76853743  0.06515627  0.92218772    -0.04100
C3166       C  0.78524791  0.03851959  0.90031168    -0.01200
C3167       C  0.77950465  0.04406109  0.86804052     0.03800
C3168       C  0.75990386  0.07749906  0.85721739    -0.04100
C3169       C  0.99924569  0.10712080  0.87867236    -0.01200
C3170       C  0.00151283  0.10014148  0.91118016     0.03800
C3171       C  0.80817248  0.00517513  0.91057769     0.38400
C3172       C  0.99133805  0.14623947  0.86727279     0.38400
C3173       C  0.98796647  0.12950336  0.93325911     0.36800
C3174       C  0.79583404  0.01670831  0.84555679     0.36800
N3175       N  0.97731827  0.15282431  0.95104410    -0.38000
N3176       N  0.80982875  0.99579454  0.82737833    -0.38000
N3177       N  0.98729452  0.17806488  0.85840630    -0.37400
N3178       N  0.82692877  0.47887786  0.91867302    -0.37400
C3179       C  0.76919546  0.06477691  0.57789817    -0.04100
C3180       C  0.75324078  0.10037344  0.58878085    -0.01200
C3181       C  0.75132962  0.10771492  0.62125144     0.03800
C3182       C  0.76134711  0.07797115  0.64278719    -0.04100
C3183       C  0.03012348  0.04402604  0.63204057    -0.01200
C3184       C  0.03549533  0.03801742  0.59975838     0.03800
C3185       C  0.74052903  0.12993115  0.56659689     0.38400
C3186       C  0.04587646  0.01657674  0.65461125     0.38400
C3187       C  0.05764053  0.00411365  0.58947137     0.36800
C3188       C  0.74418914  0.14705864  0.63245405     0.36800
N3189       N  0.07585831  0.47736278  0.58139914    -0.38000
N3190       N  0.74065378  0.17897493  0.64117428    -0.38000
N3191       N  0.05935484  0.99568211  0.67295611    -0.37400
N3192       N  0.73059377  0.15346443  0.54875467    -0.37400
C3193       C  0.84941203  0.30286630  0.92161580    -0.04100
C3194       C  0.87612569  0.33123239  0.91057344    -0.01200
C3195       C  0.88504644  0.33383040  0.87839542     0.03800
C3196       C  0.86100088  0.31600390  0.85580243    -0.04100
C3197       C  0.83191318  0.28979060  0.86656771    -0.01200
C3198       C  0.82722097  0.28194796  0.89910679     0.03800
C3199       C  0.89594514  0.35698440  0.93234634     0.38400
C3200       C  0.80975651  0.26762226  0.84390983     0.38400
C3201       C  0.80159632  0.25030458  0.90880368     0.36800
C3202       C  0.92230704  0.34955835  0.86963634     0.36800
N3203       N  0.78149765  0.22466066  0.91632713    -0.38000
N3204       N  0.95375009  0.35870986  0.86357401    -0.38000
N3205       N  0.79226299  0.24978685  0.82579710    -0.37400
N3206       N  0.91157948  0.37777254  0.94955165    -0.37400
C3207       C  0.85209743  0.30194318  0.57876097    -0.04100
C3208       C  0.82885467  0.28191530  0.60148069    -0.01200
C3209       C  0.83255849  0.29039273  0.63387646     0.03800
C3210       C  0.86249905  0.31544742  0.64453227    -0.04100
C3211       C  0.88796062  0.33191718  0.62181167    -0.01200
C3212       C  0.87994721  0.32910392  0.58958300     0.03800
C3213       C  0.80348425  0.25006970  0.59224154     0.38400
C3214       C  0.92504573  0.34760061  0.63066453     0.38400
C3215       C  0.90202522  0.35323647  0.56760408     0.36800
C3216       C  0.80745610  0.27065929  0.65641006     0.36800
N3217       N  0.91970879  0.37253023  0.55024622    -0.38000
N3218       N  0.78710133  0.25502410  0.67421713    -0.38000
N3219       N  0.95620273  0.35707124  0.63691613    -0.37400
N3220       N  0.78388528  0.22408549  0.58501216    -0.37400
C3221       C  0.88457016  0.17442392  0.85628333    -0.04100
C3222       C  0.90359605  0.20807986  0.86705986    -0.01200
C3223       C  0.90945735  0.21333721  0.89930692     0.03800
C3224       C  0.89329206  0.18619206  0.92118764    -0.04100
C3225       C  0.87697354  0.15096184  0.91015261    -0.01200
C3226       C  0.87479945  0.14427135  0.87764765     0.03800
C3227       C  0.91992538  0.23552944  0.84451357     0.38400
C3228       C  0.86448054  0.12088147  0.93212343     0.38400
C3229       C  0.86823798  0.10500079  0.86612155     0.36800
C3230       C  0.93234024  0.24665828  0.90947732     0.36800
N3231       N  0.86528377  0.07316724  0.85711998    -0.38000
N3232       N  0.95118050  0.27293029  0.91733843    -0.38000
N3233       N  0.85470473  0.09678498  0.94966981    -0.37400
N3234       N  0.93410308  0.25638350  0.82629272    -0.37400
C3235       C  0.88645020  0.17375427  0.64268868    -0.04100
C3236       C  0.87653699  0.14360552  0.62163413    -0.01200
C3237       C  0.87874972  0.15022347  0.58904562     0.03800
C3238       C  0.89528646  0.18532244  0.57753674    -0.04100
C3239       C  0.91172736  0.21231570  0.59901672    -0.01200
C3240       C  0.90566773  0.20727271  0.63139838     0.03800
C3241       C  0.86953736  0.10442927  0.63347322     0.38400
C3242       C  0.93501569  0.24526185  0.58822672     0.38400
C3243       C  0.92151260  0.23504716  0.65353338     0.36800
C3244       C  0.86590654  0.12025316  0.56743024     0.36800
N3245       N  0.93513532  0.25622273  0.67149411    -0.38000
N3246       N  0.85584164  0.09626267  0.55015296    -0.38000
N3247       N  0.95418437  0.27117704  0.57974437    -0.37400
N3248       N  0.86619091  0.07262198  0.64264428    -0.37400
O3249       O  0.91525905  0.71786230  0.03067780    -0.70500
O3250       O  0.88654120  0.78980113  0.46754445    -0.70700
O3251       O  0.88777067  0.78932860  0.03154851    -0.70600
O3252       O  0.91430047  0.71834173  0.46730545    -0.70600
O3253       O  0.85547124  0.69546816  0.46770682    -0.70600
O3254       O  0.82891421  0.76711101  0.03293558    -0.70600
O3255       O  0.82779560  0.76714797  0.46794145    -0.70500
O3256       O  0.85633451  0.69528760  0.03228527    -0.70700
V3257       V  0.89971652  0.75346011  0.99927634     1.35200
V3258       V  0.84315180  0.73160902  0.50020988     1.35200
C3259       C  0.88953752  0.69787372  0.04460890     0.78700
C3260       C  0.85377137  0.78756772  0.45447168     0.78800
C3261       C  0.85543264  0.78712375  0.04568689     0.78600
C3262       C  0.88827783  0.69837510  0.45425247     0.78600
O3263       O  0.95287461  0.98316392  0.46780285    -0.70500
O3264       O  0.98023753  0.55428169  0.03275243    -0.70700
O3265       O  0.98019814  0.55492510  0.46825367    -0.70600
O3266       O  0.95286228  0.98243088  0.03288246    -0.70600
O3267       O  0.76172059  0.96016525  0.03186453    -0.70600
O3268       O  0.78915559  0.53234246  0.46833588    -0.70600
O3269       O  0.78920755  0.53170041  0.03158052    -0.70500
O3270       O  0.76171339  0.96084745  0.46787630    -0.70700
V3271       V  0.96756169  0.51832090  0.50042913     1.35200
V3272       V  0.77415707  0.49660956  0.99993151     1.35200
C3273       C  0.72923812  0.96322069  0.45438726     0.78700
C3274       C  0.76338468  0.55174667  0.04521310     0.78800
C3275       C  0.76321916  0.55240397  0.45513412     0.78600
C3276       C  0.72921068  0.96223883  0.04577309     0.78600
C3277       C  0.96376587  0.62412982  0.24990621     0.31300
C3278       C  0.79347463  0.62773409  0.24983415     0.31300
C3279       C  0.98458051  0.60466282  0.22180663    -0.04900
C3280       C  0.98179558  0.66601533  0.24971426    -0.05700
C3281       C  0.98405393  0.60477584  0.27819997    -0.05600
C3282       C  0.77496138  0.60647640  0.22226460    -0.04900
C3283       C  0.77227599  0.66801994  0.24970193    -0.05700
C3284       C  0.77445203  0.60659685  0.27761541    -0.05600
C3285       C  0.78853308  0.59275804  0.19421085    -0.31000
N3286       N  0.75793882  0.58463502  0.17586049     0.15500
C3287       C  0.97468844  0.59059901  0.19252685    -0.31000
H3288       H  0.94574418  0.58748293  0.18316943     0.17500
C3289       C  0.78191248  0.70771616  0.24962767    -0.30000
N3290       N  0.74852519  0.72962443  0.24960006     0.14200
C3291       C  0.96792277  0.70429890  0.24962050    -0.30000
C3292       C  0.78761681  0.59259335  0.30558976    -0.30300
N3293       N  0.75678311  0.58420500  0.32408740     0.14700
H3294       H  0.81743148  0.59097589  0.31291045     0.17400
C3295       C  0.97374685  0.59046364  0.30757200    -0.30300
H3296       H  0.94465778  0.58738546  0.31706982     0.17400
H3297       H  0.93768743  0.71292847  0.24963923     0.17400
H3298       H  0.81842986  0.59111696  0.18676700     0.17400
H3299       H  0.81107278  0.71948723  0.24965311     0.17400
C3300       C  0.78042950  0.87709565  0.24999044     0.31300
C3301       C  0.95078869  0.87321950  0.25004811     0.31300
C3302       C  0.76022906  0.89681475  0.22207663    -0.04900
C3303       C  0.76249994  0.83513912  0.25004318    -0.05700
C3304       C  0.75964905  0.89676851  0.27785020    -0.05600
C3305       C  0.97001379  0.89445011  0.22190348    -0.04900
C3306       C  0.97204052  0.83301748  0.25003541    -0.05700
C3307       C  0.96943614  0.89440876  0.27817396    -0.05600
C3308       C  0.95787147  0.91130219  0.19426634    -0.31000
N3309       N  0.73934007  0.92409010  0.17752055     0.15500
C3310       C  0.77140333  0.91597124  0.19501019    -0.31000
H3311       H  0.80106541  0.92242461  0.18861565     0.17500
C3312       C  0.96246877  0.79331369  0.24981195    -0.30000
N3313       N  0.74587708  0.77146317  0.24973623     0.14200
C3314       C  0.77643866  0.79685117  0.24987836    -0.30000
C3315       C  0.95688408  0.91153088  0.30577803    -0.30300
N3316       N  0.73814657  0.92438463  0.32230990     0.14700
H3317       H  0.92712558  0.91235018  0.31411026     0.17400
C3318       C  0.77038350  0.91624970  0.30460479    -0.30300
H3319       H  0.79994115  0.92310391  0.31054819     0.17400
H3320       H  0.80668541  0.78825828  0.24981762     0.17400
H3321       H  0.92824990  0.91196589  0.18603488     0.17400
H3322       H  0.93332564  0.78150189  0.24968937     0.17400
C3323       C  0.82577133  0.87786566  0.24999714     0.31300
C3324       C  0.90542185  0.87392921  0.24996378     0.31300
C3325       C  0.84493281  0.85677132  0.22188414    -0.04900
C3326       C  0.84703584  0.91803264  0.24991532    -0.05700
C3327       C  0.84439089  0.85662180  0.27815897    -0.05600
C3328       C  0.88514702  0.85429327  0.22204564    -0.04900
C3329       C  0.88749615  0.91586638  0.24988940    -0.05700
C3330       C  0.88463401  0.85434079  0.27797103    -0.05600
C3331       C  0.89614656  0.83542332  0.19485474    -0.30400
N3332       N  0.86401060  0.82773536  0.17730690     0.15500
C3333       C  0.83265648  0.84047747  0.19413792    -0.31000
H3334       H  0.80302805  0.84014512  0.18592358     0.17500
C3335       C  0.90145818  0.95411118  0.24992583    -0.30000
N3336       N  0.87089988  0.97951773  0.24999032     0.14200
C3337       C  0.83748446  0.95773173  0.24997249    -0.30000
C3338       C  0.89530111  0.83587401  0.30533037    -0.30300
N3339       N  0.86290212  0.82794442  0.32292460     0.14700
H3340       H  0.92485818  0.82983939  0.31191571     0.17400
C3341       C  0.83170345  0.84018929  0.30603140    -0.30300
H3342       H  0.80191463  0.83943413  0.31432567     0.17400
H3343       H  0.80833492  0.96959286  0.25004529     0.17400
H3344       H  0.92576993  0.82882219  0.18844476     0.17400
H3345       H  0.93169173  0.96266785  0.24994801     0.17400
C3346       C  0.83876181  0.62678959  0.24978425     0.31300
C3347       C  0.91848270  0.62317630  0.24978152     0.31300
C3348       C  0.85901148  0.64635181  0.27780982    -0.04900
C3349       C  0.85682228  0.58491817  0.24998474    -0.05700
C3350       C  0.85958894  0.64613971  0.22152892    -0.05600
C3351       C  0.89939762  0.64450542  0.27729181    -0.04900
C3352       C  0.89730899  0.58289485  0.24998411    -0.05700
C3353       C  0.89997992  0.64431027  0.22200480    -0.05600
C3354       C  0.91250994  0.65914050  0.30496376    -0.31000
N3355       N  0.88160648  0.66790642  0.32321842     0.15500
C3356       C  0.84861250  0.66132570  0.30681995    -0.31000
H3357       H  0.81950478  0.66454097  0.31624481     0.17500
C3358       C  0.90695115  0.54319749  0.25004741    -0.30000
N3359       N  0.87356197  0.52133300  0.25008956     0.14200
C3360       C  0.84294926  0.54666597  0.25007615    -0.30000
C3361       C  0.91358394  0.65888342  0.19415163    -0.30300
N3362       N  0.88300009  0.66750348  0.17586207     0.14700
H3363       H  0.94351142  0.66069874  0.18673130     0.17400
C3364       C  0.84972931  0.66105733  0.19244087    -0.30300
H3365       H  0.82078020  0.66437180  0.18310470     0.17400
H3366       H  0.81272675  0.53806670  0.25005798     0.17400
H3367       H  0.94230007  0.66088598  0.31230779     0.17400
H3368       H  0.93612472  0.53139192  0.24998836     0.17400
C3369       C  0.73668940  0.93662130  0.35514452    -0.04100
C3370       C  0.76211648  0.91993005  0.37745822    -0.01200
C3371       C  0.75364950  0.92182953  0.40976888     0.03800
C3372       C  0.72568746  0.94872743  0.42123031    -0.04100
C3373       C  0.95248744  0.96910516  0.39896357    -0.01200
C3374       C  0.95666702  0.96147410  0.36636660     0.03800
C3375       C  0.79992277  0.90583299  0.36823392     0.38400
C3376       C  0.92649763  0.00027067  0.40893390     0.38400
C3377       C  0.93242922  0.98221372  0.34413899     0.36800
C3378       C  0.77560274  0.89726891  0.43121625     0.36800
N3379       N  0.91304963  0.99876187  0.32641929    -0.38000
N3380       N  0.79316927  0.87771528  0.44822276    -0.38000
N3381       N  0.90630751  0.02565777  0.41677106    -0.37400
N3382       N  0.83154961  0.89785438  0.36164495    -0.37400
C3383       C  0.73792951  0.93634241  0.14472840    -0.04100
C3384       C  0.76303457  0.91933415  0.12208423    -0.01200
C3385       C  0.75402984  0.92082053  0.08997441     0.03800
C3386       C  0.72570041  0.94738752  0.07890042    -0.04100
C3387       C  0.95236161  0.96750433  0.10141865    -0.01200
C3388       C  0.95760002  0.96088058  0.13396813     0.03800
C3389       C  0.80077630  0.90483591  0.13068626     0.38400
C3390       C  0.92450709  0.99691609  0.09161208     0.38400
C3391       C  0.93396451  0.98219176  0.15653716     0.36800
C3392       C  0.77538400  0.89582750  0.06827127     0.36800
N3393       N  0.91509015  0.99922036  0.17451474    -0.38000
N3394       N  0.79232997  0.87580191  0.05105239    -0.38000
N3395       N  0.90265995  0.02080611  0.08386652    -0.37400
N3396       N  0.83234112  0.89631113  0.13662833    -0.37400
C3397       C  0.76855877  0.56517262  0.42218333    -0.04100
C3398       C  0.78526593  0.53853580  0.40030589    -0.01200
C3399       C  0.77951260  0.54407303  0.36803544     0.03800
C3400       C  0.75990511  0.57750738  0.35721336    -0.04100
C3401       C  0.99924729  0.60712860  0.37866811    -0.01200
C3402       C  0.00152547  0.60015340  0.41117607     0.03800
C3403       C  0.80819557  0.50519428  0.41056978     0.38400
C3404       C  0.99132935  0.64624431  0.36726723     0.38400
C3405       C  0.98798195  0.62951533  0.43325605     0.36800
C3406       C  0.79583574  0.51671837  0.34555010     0.36800
N3407       N  0.97733681  0.65283482  0.45104345    -0.38000
N3408       N  0.80982331  0.49580411  0.32736846    -0.38000
N3409       N  0.98727792  0.67806775  0.35839873    -0.37400
N3410       N  0.82695723  0.97890047  0.41866280    -0.37400
C3411       C  0.76917819  0.56475753  0.07789575    -0.04100
C3412       C  0.75323169  0.60035765  0.08877771    -0.01200
C3413       C  0.75132857  0.60770263  0.12124771     0.03800
C3414       C  0.76134512  0.57795889  0.14278385    -0.04100
C3415       C  0.03011382  0.54400971  0.13203706    -0.01200
C3416       C  0.03547940  0.53799784  0.09975483     0.03800
C3417       C  0.74051873  0.62991431  0.06659322     0.38400
C3418       C  0.04586603  0.51655927  0.15460703     0.38400
C3419       C  0.05762085  0.50409174  0.08946672     0.36800
C3420       C  0.74419363  0.64704822  0.13244851     0.36800
N3421       N  0.07584067  0.97734323  0.08139317    -0.38000
N3422       N  0.74066146  0.67896591  0.14116635    -0.38000
N3423       N  0.05934456  0.49566258  0.17295023    -0.37400
N3424       N  0.73058205  0.65344589  0.04875011    -0.37400
C3425       C  0.84938998  0.80284513  0.42161891    -0.04100
C3426       C  0.87609556  0.83122231  0.41058257    -0.01200
C3427       C  0.88501582  0.83383313  0.37840537     0.03800
C3428       C  0.86097985  0.81600274  0.35580786    -0.04100
C3429       C  0.83189761  0.78977932  0.36656766    -0.01200
C3430       C  0.82720459  0.78192790  0.39910569     0.03800
C3431       C  0.89591327  0.85696901  0.43236107     0.38400
C3432       C  0.80974919  0.76760929  0.34390560     0.38400
C3433       C  0.80158620  0.75027686  0.40879712     0.36800
C3434       C  0.92226463  0.84959175  0.36965070     0.36800
N3435       N  0.78149203  0.72462748  0.41631632    -0.38000
N3436       N  0.95370122  0.85877229  0.36359631    -0.38000
N3437       N  0.79226199  0.74977125  0.32579052    -0.37400
N3438       N  0.91155000  0.87775126  0.44956949    -0.37400
C3439       C  0.85212130  0.80195778  0.07876584    -0.04100
C3440       C  0.82887075  0.78193095  0.10148121    -0.01200
C3441       C  0.83257521  0.79039827  0.13387824     0.03800
C3442       C  0.86252099  0.81544235  0.14453923    -0.04100
C3443       C  0.88799263  0.83190685  0.12182346    -0.01200
C3444       C  0.87998063  0.82910496  0.08959385     0.03800
C3445       C  0.80349009  0.75009616  0.09223658     0.38400
C3446       C  0.92508785  0.84756308  0.13068146     0.38400
C3447       C  0.90206760  0.85323582  0.06762001     0.36800
C3448       C  0.80746851  0.77066389  0.15640839     0.36800
N3449       N  0.91975650  0.87252806  0.05026468    -0.38000
N3450       N  0.78711146  0.75502847  0.17421365    -0.38000
N3451       N  0.95625052  0.85700908  0.13693947    -0.37400
N3452       N  0.78388256  0.72411996  0.08500406    -0.37400
C3453       C  0.88457288  0.67441929  0.35627906    -0.04100
C3454       C  0.90358954  0.70807971  0.36705703    -0.01200
C3455       C  0.90945360  0.71333517  0.39930417     0.03800
C3456       C  0.89330225  0.68618086  0.42118439    -0.04100
C3457       C  0.87699525  0.65094605  0.41014757    -0.01200
C3458       C  0.87481518  0.64426046  0.37764184     0.03800
C3459       C  0.91991050  0.73553474  0.34451130     0.38400
C3460       C  0.86452086  0.62085724  0.43211771     0.38400
C3461       C  0.86825700  0.60499115  0.36611182     0.36800
C3462       C  0.93232691  0.74666288  0.40947474     0.36800
N3463       N  0.86530374  0.57315969  0.35710531    -0.38000
N3464       N  0.95116024  0.77294064  0.41733455    -0.38000
N3465       N  0.85476074  0.59675556  0.44966515    -0.37400
N3466       N  0.93408295  0.75639230  0.32629047    -0.37400
C3467       C  0.88644105  0.67374790  0.14268124    -0.04100
C3468       C  0.87651849  0.64360543  0.12162387    -0.01200
C3469       C  0.87872944  0.65022907  0.08903608     0.03800
C3470       C  0.89527512  0.68532551  0.07753077    -0.04100
C3471       C  0.91172518  0.71230998  0.09901295    -0.01200
C3472       C  0.90566484  0.70726401  0.13139387     0.03800
C3473       C  0.86951386  0.60442795  0.13345819     0.38400
C3474       C  0.93502409  0.74524992  0.08822601     0.38400
C3475       C  0.92151322  0.73503387  0.15353101     0.36800
C3476       C  0.86587775  0.62026554  0.06741800     0.36800
N3477       N  0.93513748  0.75620635  0.17149335    -0.38000
N3478       N  0.85580635  0.59627927  0.05013945    -0.38000
N3479       N  0.95420099  0.77116000  0.07974591    -0.37400
N3480       N  0.86616439  0.57261868  0.14262404    -0.37400
O3481       O  0.91526517  0.71785403  0.53067861    -0.70500
O3482       O  0.88656110  0.78982165  0.96754408    -0.70700
O3483       O  0.88775396  0.78931083  0.53154690    -0.70600
O3484       O  0.91429648  0.71835221  0.96730665    -0.70600
O3485       O  0.85545880  0.69550056  0.96770449    -0.70600
O3486       O  0.82890348  0.76707701  0.53293454    -0.70600
O3487       O  0.82780722  0.76719014  0.96794319    -0.70500
O3488       O  0.85634699  0.69526274  0.53228908    -0.70700
V3489       V  0.89971006  0.75344492  0.49927587     1.35200
V3490       V  0.84315126  0.73164248  0.00020898     1.35200
C3491       C  0.88954912  0.69786126  0.54461264     0.78700
C3492       C  0.85379045  0.78759822  0.95447140     0.78800
C3493       C  0.85541585  0.78709991  0.54568428     0.78600
C3494       C  0.88826811  0.69839398  0.95425303     0.78600
O3495       O  0.95283894  0.98315056  0.96780510    -0.70500
O3496       O  0.98026048  0.55429644  0.53275130    -0.70700
O3497       O  0.98017183  0.55491044  0.96825496    -0.70600
O3498       O  0.95289621  0.98244334  0.53287923    -0.70600
O3499       O  0.76175849  0.96018580  0.53186421    -0.70600
O3500       O  0.78912507  0.53232272  0.96833867    -0.70600
O3501       O  0.78923581  0.53172329  0.53158122    -0.70500
O3502       O  0.76167419  0.96082690  0.96787932    -0.70700
V3503       V  0.96753162  0.51830816  0.00043092     1.35200
V3504       V  0.77419178  0.49662862  0.49993103     1.35200
C3505       C  0.72919970  0.96320369  0.95439020     0.78700
C3506       C  0.76340883  0.55176548  0.54521347     0.78800
C3507       C  0.76319164  0.55238762  0.95513687     0.78600
C3508       C  0.72924690  0.96225452  0.54577118     0.78600
C3509       C  0.96376772  0.62413127  0.74991309     0.31300
C3510       C  0.79347630  0.62773674  0.74983973     0.31300
C3511       C  0.98458194  0.60466525  0.72181284    -0.04900
C3512       C  0.98179697  0.66601728  0.74972211    -0.05700
C3513       C  0.98405651  0.60477656  0.77820613    -0.05600
C3514       C  0.77496279  0.60648016  0.72226995    -0.04900
C3515       C  0.77227730  0.66802247  0.74970870    -0.05700
C3516       C  0.77445415  0.60659810  0.77762101    -0.05600
C3517       C  0.78853434  0.59276763  0.69421453    -0.31000
N3518       N  0.75794033  0.58464602  0.67586362     0.15500
C3519       C  0.97468956  0.59060511  0.69253181    -0.31000
H3520       H  0.94574482  0.58748956  0.68317450     0.17500
C3521       C  0.78191339  0.70771893  0.74963322    -0.30000
N3522       N  0.74852596  0.72962706  0.74960579     0.14200
C3523       C  0.96792382  0.70430093  0.74962813    -0.30000
C3524       C  0.78761900  0.59259074  0.80559445    -0.30300
N3525       N  0.75678507  0.58419894  0.82409107     0.14700
H3526       H  0.81743354  0.59097314  0.81291495     0.17400
C3527       C  0.97374993  0.59046027  0.80757684    -0.30300
H3528       H  0.94466076  0.58738107  0.81707462     0.17400
H3529       H  0.93768838  0.71293026  0.74964714     0.17400
H3530       H  0.81843098  0.59112933  0.68676987     0.17400
H3531       H  0.81107364  0.71949024  0.74965670     0.17400
C3532       C  0.78042942  0.87709913  0.74999258     0.31300
C3533       C  0.95078880  0.87322231  0.75004132     0.31300
C3534       C  0.76023258  0.89682004  0.72207763    -0.04900
C3535       C  0.76250005  0.83514246  0.75004314    -0.05700
C3536       C  0.75964492  0.89677061  0.77785167    -0.05600
C3537       C  0.97001741  0.89445463  0.72189942    -0.04900
C3538       C  0.97204090  0.83302037  0.75003020    -0.05700
C3539       C  0.96943189  0.89441060  0.77817026    -0.05600
C3540       C  0.95787964  0.91131115  0.69426242    -0.31000
N3541       N  0.73935199  0.92410164  0.67752116     0.15500
C3542       C  0.77141149  0.91598187  0.69501483    -0.31000
H3543       H  0.80107440  0.92243954  0.68862592     0.17500
C3544       C  0.96246937  0.79331637  0.74980849    -0.30000
N3545       N  0.74587758  0.77146601  0.74973875     0.14200
C3546       C  0.77643893  0.79685434  0.74988312    -0.30000
C3547       C  0.95687424  0.91152837  0.80577474    -0.30300
N3548       N  0.73813241  0.92437945  0.82231218     0.14700
H3549       H  0.92711454  0.91234586  0.81410399     0.17400
C3550       C  0.77037356  0.91624689  0.80461066    -0.30300
H3551       H  0.79993001  0.92309786  0.81056001     0.17400
H3552       H  0.80668564  0.78826157  0.74982773     0.17400
H3553       H  0.92825909  0.91197645  0.68602816     0.17400
H3554       H  0.93332646  0.78150445  0.74968384     0.17400
C3555       C  0.82577147  0.87786804  0.74999726     0.31300
C3556       C  0.90542211  0.87393131  0.74995477     0.31300
C3557       C  0.84492859  0.85677476  0.72188087    -0.04900
C3558       C  0.84703608  0.91803464  0.74991490    -0.05700
C3559       C  0.84439565  0.85662287  0.77815601    -0.05600
C3560       C  0.88514331  0.85429801  0.72203686    -0.04900
C3561       C  0.88749636  0.91586835  0.74988427    -0.05700
C3562       C  0.88463845  0.85434016  0.77796236    -0.05600
C3563       C  0.89613739  0.83543166  0.69484247    -0.30400
N3564       N  0.86399725  0.82774134  0.67729951     0.15500
C3565       C  0.83264653  0.84048038  0.69413604    -0.31000
H3566       H  0.80301602  0.84014581  0.68592614     0.17500
C3567       C  0.90145836  0.95411309  0.74992093    -0.30000
N3568       N  0.87089995  0.97951944  0.74999012     0.14200
C3569       C  0.83748451  0.95773354  0.74997531    -0.30000
C3570       C  0.89531161  0.83587096  0.80531882    -0.30300
N3571       N  0.86291700  0.82794486  0.82291868     0.14700
H3572       H  0.92486981  0.82983132  0.81189761     0.17400
C3573       C  0.83171457  0.84019232  0.80603069    -0.30300
H3574       H  0.80192775  0.83944046  0.81432982     0.17400
H3575       H  0.80833507  0.96959449  0.75005232     0.17400
H3576       H  0.92576002  0.82883578  0.68842604     0.17400
H3577       H  0.93169186  0.96266984  0.74993990     0.17400
C3578       C  0.83876366  0.62679200  0.74978861     0.31300
C3579       C  0.91848458  0.62317742  0.74978772     0.31300
C3580       C  0.85901283  0.64635166  0.77781525    -0.04900
C3581       C  0.85682359  0.58492023  0.74998762    -0.05700
C3582       C  0.85959231  0.64614429  0.72153444    -0.05600
C3583       C  0.89939893  0.64450414  0.77729843    -0.04900
C3584       C  0.89731031  0.58289634  0.74998782    -0.05700
C3585       C  0.89998324  0.64431440  0.72201178    -0.05600
C3586       C  0.91251063  0.65913902  0.80497042    -0.31000
N3587       N  0.88160642  0.66790780  0.82322322     0.15500
C3588       C  0.84861284  0.66132734  0.80682425    -0.31000
H3589       H  0.81950480  0.66454464  0.81624787     0.17500
C3590       C  0.90695199  0.54319897  0.75005121    -0.30000
N3591       N  0.87356262  0.52133492  0.75009252     0.14200
C3592       C  0.84295012  0.54666816  0.75007856    -0.30000
C3593       C  0.91358968  0.65889213  0.69416084    -0.30300
N3594       N  0.88300773  0.66751446  0.67587005     0.14700
H3595       H  0.94351781  0.66070767  0.68674234     0.17400
C3596       C  0.84973542  0.66106565  0.69244669    -0.30300
H3597       H  0.82078730  0.66437985  0.68310886     0.17400
H3598       H  0.81272752  0.53806918  0.75005979     0.17400
H3599       H  0.94230049  0.66088343  0.81231585     0.17400
H3600       H  0.93612545  0.53139312  0.74999340     0.17400
C3601       C  0.73666622  0.93661004  0.85514824    -0.04100
C3602       C  0.76208731  0.91991525  0.87746450    -0.01200
C3603       C  0.75361407  0.92181238  0.90977411     0.03800
C3604       C  0.72565107  0.94871114  0.92123329    -0.04100
C3605       C  0.95245847  0.96909313  0.89896440    -0.01200
C3606       C  0.95664446  0.96146452  0.86636745     0.03800
C3607       C  0.79989204  0.90581036  0.86824423     0.38400
C3608       C  0.92647183  0.00026250  0.90893293     0.38400
C3609       C  0.93241631  0.98221178  0.84413750     0.36800
C3610       C  0.77556596  0.89725191  0.93122299     0.36800
N3611       N  0.91304529  0.99876779  0.82641636    -0.38000
N3612       N  0.79313390  0.87769979  0.94822972    -0.38000
N3613       N  0.90628519  0.02565319  0.91676859    -0.37400
N3614       N  0.83151832  0.89782303  0.86166071    -0.37400
C3615       C  0.73794929  0.93635667  0.64472903    -0.04100
C3616       C  0.76306052  0.91935084  0.62208795    -0.01200
C3617       C  0.75406345  0.92083800  0.58997637     0.03800
C3618       C  0.72573325  0.94740159  0.57889853    -0.04100
C3619       C  0.95238526  0.96751400  0.60141413    -0.01200
C3620       C  0.95761948  0.96089279  0.63396459     0.03800
C3621       C  0.80080272  0.90485972  0.63069572     0.38400
C3622       C  0.92452555  0.99691842  0.59160374     0.38400
C3623       C  0.93398188  0.98220581  0.65653096     0.36800
C3624       C  0.77542338  0.89584644  0.56827612     0.36800
N3625       N  0.91510743  0.99923676  0.67450704    -0.38000
N3626       N  0.79237322  0.87582050  0.55105999    -0.38000
N3627       N  0.90267423  0.02080248  0.58385432    -0.37400
N3628       N  0.83236748  0.89634314  0.63664526    -0.37400
C3629       C  0.76853673  0.56515698  0.92218734    -0.04100
C3630       C  0.78524716  0.53852005  0.90031147    -0.01200
C3631       C  0.77950469  0.54406162  0.86804027     0.03800
C3632       C  0.75990443  0.57749979  0.85721694    -0.04100
C3633       C  0.99924716  0.60712048  0.87867208    -0.01200
C3634       C  0.00151357  0.60014096  0.91117987     0.03800
C3635       C  0.80817046  0.50517487  0.91057773     0.38400
C3636       C  0.99133983  0.64623924  0.86727259     0.38400
C3637       C  0.98796567  0.62950221  0.93325878     0.36800
C3638       C  0.79583432  0.51670862  0.84555675     0.36800
N3639       N  0.97731602  0.65282232  0.95104392    -0.38000
N3640       N  0.80982926  0.49579462  0.82737858    -0.38000
N3641       N  0.98729659  0.67806477  0.85840627    -0.37400
N3642       N  0.82693193  0.97887880  0.91867276    -0.37400
C3643       C  0.76919604  0.56477596  0.57789784    -0.04100
C3644       C  0.75324277  0.60037327  0.58878013    -0.01200
C3645       C  0.75133159  0.60771514  0.62125070     0.03800
C3646       C  0.76134845  0.57797138  0.64278669    -0.04100
C3647       C  0.03012354  0.54402577  0.63204020    -0.01200
C3648       C  0.03549463  0.53801700  0.59975797     0.03800
C3649       C  0.74053258  0.62993123  0.56659578     0.38400
C3650       C  0.04587677  0.51657639  0.65461070     0.38400
C3651       C  0.05763902  0.50411281  0.58947072     0.36800
C3652       C  0.74419104  0.64705892  0.63245315     0.36800
N3653       N  0.07586057  0.97736397  0.58140009    -0.38000
N3654       N  0.74065554  0.67897514  0.64117354    -0.38000
N3655       N  0.05935541  0.49568153  0.67295526    -0.37400
N3656       N  0.73059876  0.65346487  0.54875332    -0.37400
C3657       C  0.84941446  0.80286751  0.92161571    -0.04100
C3658       C  0.87612815  0.83123334  0.91057310    -0.01200
C3659       C  0.88504879  0.83383088  0.87839505     0.03800
C3660       C  0.86100274  0.81600444  0.85580227    -0.04100
C3661       C  0.83191496  0.78979147  0.86656789    -0.01200
C3662       C  0.82722324  0.78194891  0.89910699     0.03800
C3663       C  0.89594751  0.85698573  0.93234580     0.38400
C3664       C  0.80975752  0.76762339  0.84391036     0.38400
C3665       C  0.80159923  0.75030514  0.90880418     0.36800
C3666       C  0.92230983  0.84955769  0.86963585     0.36800
N3667       N  0.78150117  0.72466091  0.91632803    -0.38000
N3668       N  0.95375325  0.85870806  0.86357354    -0.38000
N3669       N  0.79226328  0.74978820  0.82579797    -0.37400
N3670       N  0.91158160  0.87777424  0.94955095    -0.37400
C3671       C  0.85209940  0.80194278  0.57876043    -0.04100
C3672       C  0.82885588  0.78191568  0.60148010    -0.01200
C3673       C  0.83255927  0.79039350  0.63387584     0.03800
C3674       C  0.86250031  0.81544752  0.64453177    -0.04100
C3675       C  0.88796238  0.83191677  0.62181126    -0.01200
C3676       C  0.87994936  0.82910328  0.58958253     0.03800
C3677       C  0.80348495  0.75007049  0.59224101     0.38400
C3678       C  0.92504742  0.84760027  0.63066430     0.38400
C3679       C  0.90202821  0.85323507  0.56760364     0.36800
C3680       C  0.80745576  0.77066117  0.65640928     0.36800
N3681       N  0.91971260  0.87252836  0.55024597    -0.38000
N3682       N  0.78710000  0.75502699  0.67421619    -0.38000
N3683       N  0.95620428  0.85707118  0.63691610    -0.37400
N3684       N  0.78388560  0.72408657  0.58501168    -0.37400
C3685       C  0.88457131  0.67442435  0.85628306    -0.04100
C3686       C  0.90359788  0.70807997  0.86705948    -0.01200
C3687       C  0.90945905  0.71333741  0.89930656     0.03800
C3688       C  0.89329292  0.68619284  0.92118732    -0.04100
C3689       C  0.87697383  0.65096288  0.91015243    -0.01200
C3690       C  0.87479980  0.64427218  0.87764752     0.03800
C3691       C  0.91992799  0.73552911  0.84451316     0.38400
C3692       C  0.86448026  0.62088287  0.93212338     0.38400
C3693       C  0.86823783  0.60500163  0.86612170     0.36800
C3694       C  0.93234263  0.74665798  0.90947697     0.36800
N3695       N  0.86528348  0.57316797  0.85712043    -0.38000
N3696       N  0.95118345  0.77292964  0.91733799    -0.38000
N3697       N  0.85470392  0.59678669  0.94966983    -0.37400
N3698       N  0.93410634  0.75638292  0.82629244    -0.37400
C3699       C  0.88645187  0.67375405  0.64268856    -0.04100
C3700       C  0.87653894  0.64360519  0.62163404    -0.01200
C3701       C  0.87875195  0.65022301  0.58904557     0.03800
C3702       C  0.89528897  0.68532177  0.57753670    -0.04100
C3703       C  0.91172947  0.71231526  0.59901664    -0.01200
C3704       C  0.90566954  0.70727242  0.63139827     0.03800
C3705       C  0.86953914  0.60442896  0.63347307     0.38400
C3706       C  0.93501757  0.74526156  0.58822668     0.38400
C3707       C  0.92151444  0.73504684  0.65353326     0.36800
C3708       C  0.86590835  0.62025297  0.56743018     0.36800
N3709       N  0.93513739  0.75622241  0.67149388    -0.38000
N3710       N  0.85584311  0.59626283  0.55015271    -0.38000
N3711       N  0.95418616  0.77117693  0.57974458    -0.37400
N3712       N  0.86619241  0.57262167  0.64264404    -0.37400
loop_ 
_geom_bond_atom_site_label_1 
_geom_bond_atom_site_label_2 
_geom_bond_distance 
_geom_bond_site_symmetry_2 
_ccdc_geom_bond_type 
O1            V9   1.885   1_554  S
O1           C11   1.261       .  A
O2          V241   1.889       .  S
O2           C12   1.265       .  A
O3            V9   1.886   1_554  S
O3           C13   1.263       .  A
O4          V241   1.881       .  S
O4           C14   1.259       .  A
O5           V10   1.901       .  S
O5           C14   1.266       .  A
O6          V242   1.909       .  S
O6           C13   1.267       .  A
O7           V10   1.908       .  S
O7           C12   1.266       .  A
O8          V242   1.900       .  S
O8           C11   1.265       .  A
V9          O234   1.890       .  S
V9          O236   1.881       .  S
V9          V242   2.084   1_556  T
V10         O238   1.909       .  S
V10         O240   1.900       .  S
V10         V241   2.084       .  T
C11         C222   1.481       .  S
C12         C177   1.502       .  S
C13         C191   1.503       .  S
C14         C208   1.480       .  S
O15         V487   1.910       .  S
O15         C953   1.267       .  A
O16         V255   1.901       .  S
O16         C954   1.266       .  A
O17          V23   1.899       .  S
O17         C955   1.265       .  A
O18         V719   1.908       .  S
O18         C956   1.266       .  A
O19         V488   1.886   1_554  S
O19          C28   1.264   1_455  A
O20         V256   1.881   1_545  S
O20          C27   1.260       .  A
O21          V24   1.882   1_544  S
O21          C26   1.260       .  A
O22         V720   1.887       .  S
O22          C25   1.264   1_455  A
V23         O479   1.910   1_545  S
V23         O248   1.901       .  S
V23         O714   1.908   1_545  S
V23        V1184   2.084   1_545  T
V24         O483   1.886   1_556  S
V24         O252   1.881   1_565  S
V24         O718   1.887       .  S
V24        V3039   2.084   1_466  T
C25        O2799   1.267       .  A
C25         C124   1.505       .  S
C26        O2800   1.266   1_455  A
C26         C163   1.479       .  S
C27        O2801   1.265   1_455  A
C27         C149   1.480       .  S
C28        O2802   1.266       .  A
C28         C138   1.503       .  S
C29          C31   1.542       .  S
C29          C33   1.545       .  S
C29          C32   1.556       .  S
C29          C99   1.559       .  S
C30          C34   1.527       .  S
C30          C36   1.527       .  S
C30          C35   1.554       .  S
C30          C98   1.559       .  S
C31          C39   1.384       .  A
C31         C962   1.391       .  A
C32          C43   1.388       .  A
C32         C963   1.395       .  A
C33          C47   1.386       .  A
C33         C964   1.392       .  A
C34          C37   1.364       .  A
C34        C2815   1.391   1_455  A
C35          C41   1.392       .  A
C35        C2816   1.395   1_455  A
C36          C44   1.365       .  A
C36        C2817   1.392   1_455  A
C37          N38   1.347       .  A
C37          H50   1.076       .  S
N38        C2823   1.357   1_455  A
N38         C166   1.433       .  S
C39         N966   1.357       .  A
C39          H40   1.082       .  S
C41          N42   1.370   1_455  A
C41          H51   1.081       .  S
N42        C2827   1.362       .  A
N42          N65   1.428       .  S
C43         N970   1.362       .  A
C43          H49   1.081       .  S
C44          N45   1.347       .  A
C44          H46   1.077       .  S
N45        C2831   1.359   1_455  A
N45         C152   1.435       .  S
C47         N973   1.359       .  A
C47          H48   1.082       .  S
C52          C54   1.537       .  S
C52          C56   1.537       .  S
C52          C55   1.557       .  S
C52          C75   1.561       .  S
C53          C57   1.544       .  S
C53          C59   1.546       .  S
C53          C58   1.552       .  S
C53          C76   1.562       .  S
C54          C62   1.376       .  A
C54        C2841   1.387   1_455  A
C55          C66   1.389       .  A
C55        C2842   1.394   1_455  A
C56          C70   1.375       .  A
C56        C2843   1.386   1_455  A
C57          C60   1.378       .  A
C57         C982   1.387       .  A
C58          C64   1.392       .  A
C58         C983   1.394       .  A
C59          C67   1.381       .  A
C59         C984   1.386       .  A
C60         N989   1.363       .  A
C60          H73   1.081       .  S
N61          C62   1.365   1_655  A
N61        C2844   1.363       .  A
N61         C135   1.459       .  S
C62          H63   1.077       .  S
C64         N993   1.369       .  A
C64          H74   1.081       .  S
N65          C66   1.362   1_655  A
N65        C2848   1.369       .  A
C66          H72   1.081       .  S
C67         N996   1.365       .  A
C67          H69   1.081       .  S
N68          C70   1.365   1_655  A
N68        C2851   1.365       .  A
N68         C121   1.463       .  S
C70          H71   1.076       .  S
C75          C77   1.542       .  S
C75          C79   1.544       .  S
C75          C78   1.552       .  S
C76          C80   1.540       .  S
C76          C82   1.538       .  S
C76          C81   1.556       .  S
C77          C85   1.378       .  A
C77          C80   1.387       .  A
C78          C89   1.391       .  A
C78          C81   1.394       .  A
C79          C93   1.380       .  A
C79          C82   1.387       .  A
C80          C83   1.378       .  A
C81          C87   1.389       .  A
C82          C90   1.377       .  A
C83          N84   1.367       .  A
C83          H96   1.077       .  S
N84          C85   1.362       .  A
N84         C194   1.461       .  S
C85          H86   1.081       .  S
C87          N88   1.362       .  A
C87          H97   1.081       .  S
N88          C89   1.369       .  A
N88         N575   1.427       .  S
C89          H95   1.081       .  S
C90          N91   1.365       .  A
C90          H92   1.077       .  S
N91          C93   1.363       .  A
N91         C180   1.460       .  S
C93          H94   1.082       .  S
C98         C100   1.542       .  S
C98         C102   1.543       .  S
C98         C101   1.555       .  S
C99         C103   1.525       .  S
C99         C105   1.528       .  S
C99         C104   1.554       .  S
C100        C108   1.384       .  A
C100        C103   1.391       .  A
C101        C112   1.388       .  A
C101        C104   1.395       .  A
C102        C116   1.384       .  A
C102        C105   1.392       .  A
C103        C106   1.363       .  A
C104        C110   1.392       .  A
C105        C113   1.365       .  A
C106        N107   1.346       .  A
C106        H119   1.076       .  S
N107        C108   1.358       .  A
N107        C205   1.433       .  S
C108        H109   1.082       .  S
C110        N111   1.370       .  A
C110        H120   1.081       .  S
N111        C112   1.361       .  A
N111        N552   1.427   1_545  S
C112        H118   1.081       .  S
C113        N114   1.347       .  A
C113        H115   1.077       .  S
N114        C116   1.358       .  A
N114        C219   1.434       .  S
C116        H117   1.082       .  S
C121        C122   1.416   1_655  A
C121       C2910   1.416       .  A
C122        C123   1.408       .  A
C122        C127   1.439       .  S
C123        C124   1.413   1_455  A
C123        C130   1.454       .  S
C124       C2909   1.425       .  A
C125        C126   1.421       .  A
C125       C1052   1.425       .  A
C125        C128   1.450       .  S
C126       C1049   1.416       .  A
C126        C129   1.450       .  S
C127        N134   1.154       .  T
C128        N133   1.157       .  T
C129        N131   1.157       .  T
C130        N132   1.157       .  T
C135        C136   1.415   1_655  A
C135       C2924   1.416       .  A
C136        C137   1.407       .  A
C136        C141   1.440       .  S
C137        C138   1.413   1_455  A
C137        C144   1.454       .  S
C138       C2923   1.424       .  A
C139        C140   1.419       .  A
C139       C1066   1.424       .  A
C139        C142   1.449       .  S
C140       C1063   1.416       .  A
C140        C143   1.451       .  S
C141        N148   1.154       .  T
C142        N147   1.157       .  T
C143        N145   1.157       .  T
C144        N146   1.157       .  T
C149        C150   1.421       .  A
C149       C2938   1.409       .  A
C150        C151   1.404       .  A
C150        C155   1.451       .  S
C151        C152   1.402       .  A
C151        C158   1.449       .  S
C152       C2937   1.410   1_455  A
C153        C154   1.409       .  A
C153       C1080   1.410       .  A
C153        C156   1.443       .  S
C154       C1077   1.409       .  A
C154        C157   1.450       .  S
C155        N626   1.157   1_545  T
C156        N161   1.156       .  T
C157        N159   1.157       .  T
C158        N160   1.156   1_545  T
N162        C619   1.157       .  T
C163        C164   1.409       .  A
C163       C2952   1.421       .  A
C164        C165   1.409       .  A
C164        C169   1.449   1_455  S
C165        C166   1.410       .  A
C165        C172   1.444   1_455  S
C166       C2951   1.400       .  A
C167        C168   1.403       .  A
C167       C1094   1.400       .  A
C167        C170   1.448       .  S
C168       C1091   1.421       .  A
C168        C171   1.450       .  S
C169        N176   1.157       .  T
C170        N175   1.156   1_545  T
C171        N637   1.157   1_545  T
C172        N174   1.156       .  T
N173        C635   1.157       .  T
C177        C178   1.411       .  A
C177        C182   1.425       .  A
C178        C179   1.406       .  A
C178        C183   1.454       .  S
C179        C180   1.414       .  A
C179        C186   1.436       .  S
C180        C181   1.414       .  A
C181        C182   1.420       .  A
C181        C184   1.450       .  S
C182        C185   1.450       .  S
C183        N190   1.157       .  T
C184        N189   1.157       .  T
C185        N187   1.157       .  T
C186        N188   1.153       .  T
C191        C192   1.424       .  A
C191        C196   1.414       .  A
C192        C193   1.419       .  A
C192        C197   1.450       .  S
C193        C194   1.417       .  A
C193        C200   1.450       .  S
C194        C195   1.416       .  A
C195        C196   1.408       .  A
C195        C198   1.438       .  S
C196        C199   1.454       .  S
C197        N204   1.157       .  T
C198        N203   1.154       .  T
C199        N201   1.157       .  T
C200        N202   1.157       .  T
C205        C206   1.401       .  A
C205        C210   1.410       .  A
C206        C207   1.404       .  A
C206        C211   1.449       .  S
C207        C208   1.422       .  A
C207        C214   1.451       .  S
C208        C209   1.409       .  A
C209        C210   1.408       .  A
C209        C212   1.449       .  S
C210        C213   1.445       .  S
C211        N218   1.156       .  T
C212        N217   1.157       .  T
C213        N215   1.156       .  T
C214        N216   1.157       .  T
C219        C220   1.410       .  A
C219        C224   1.401       .  A
C220        C221   1.409       .  A
C220        C225   1.445       .  S
C221        C222   1.409       .  A
C221        C228   1.449       .  S
C222        C223   1.421       .  A
C223        C224   1.405       .  A
C223        C226   1.451       .  S
C224        C227   1.449       .  S
C225        N232   1.156       .  T
C226        N231   1.157       .  T
C227        N229   1.156       .  T
C228        N230   1.157       .  T
O233        V241   1.885       .  S
O233        C243   1.261       .  A
O234        C244   1.265       .  A
O235        V241   1.885       .  S
O235        C245   1.263       .  A
O236        C246   1.259       .  A
O237        V242   1.901   1_556  S
O237        C246   1.266       .  A
O238        C245   1.267       .  A
O239        V242   1.908   1_556  S
O239        C244   1.266       .  A
O240        C243   1.265       .  A
C243        C454   1.481       .  S
C244        C409   1.502       .  S
C245        C423   1.503       .  S
C246        C440   1.480       .  S
O247        V719   1.910   1_556  S
O247       C1185   1.267       .  A
O248       C1186   1.266       .  A
O249        V255   1.899   1_556  S
O249       C1187   1.265       .  A
O250        V487   1.908       .  S
O250       C1188   1.266       .  A
O251        V720   1.886       .  S
O251        C260   1.264   1_455  A
O252        C259   1.260       .  A
O253        V256   1.882   1_545  S
O253        C258   1.260       .  A
O254        V488   1.887       .  S
O254        C257   1.264   1_455  A
V255        O711   1.910   1_544  S
V255        O482   1.908   1_545  S
V255        V952   2.084   1_544  T
V256        O715   1.886       .  S
V256        O486   1.887       .  S
V256       V2807   2.084   1_465  T
C257       O3031   1.267       .  A
C257        C356   1.505       .  S
C258       O3032   1.266   1_455  A
C258        C395   1.479       .  S
C259       O3033   1.265   1_455  A
C259        C381   1.480       .  S
C260       O3034   1.266       .  A
C260        C370   1.503       .  S
C261        C263   1.542       .  S
C261        C265   1.545       .  S
C261        C264   1.556       .  S
C261        C331   1.559       .  S
C262        C266   1.527       .  S
C262        C268   1.527       .  S
C262        C267   1.554       .  S
C262        C330   1.559       .  S
C263        C271   1.384       .  A
C263       C1194   1.391       .  A
C264        C275   1.388       .  A
C264       C1195   1.395       .  A
C265        C279   1.386       .  A
C265       C1196   1.392       .  A
C266       C3047   1.391   1_455  A
C266        C269   1.364       .  A
C267       C3048   1.395   1_455  A
C267        C273   1.392       .  A
C268       C3049   1.392   1_455  A
C268        C276   1.365       .  A
C269        N270   1.347       .  A
C269        H282   1.076       .  S
N270       C3055   1.357   1_455  A
N270        C398   1.433       .  S
C271       N1198   1.357       .  A
C271        H272   1.082       .  S
C273        N274   1.370   1_455  A
C273        H283   1.081       .  S
N274       C3059   1.362       .  A
N274        N297   1.428       .  S
C275       N1202   1.362       .  A
C275        H281   1.081       .  S
C276        N277   1.347       .  A
C276        H278   1.077       .  S
N277       C3063   1.359   1_455  A
N277        C384   1.435       .  S
C279       N1205   1.359       .  A
C279        H280   1.082       .  S
C284        C286   1.537       .  S
C284        C288   1.537       .  S
C284        C287   1.557       .  S
C284        C307   1.561       .  S
C285        C289   1.544       .  S
C285        C291   1.546       .  S
C285        C290   1.552       .  S
C285        C308   1.562       .  S
C286        C294   1.376       .  A
C286       C3073   1.387   1_455  A
C287        C298   1.389       .  A
C287       C3074   1.394   1_455  A
C288        C302   1.375       .  A
C288       C3075   1.386   1_455  A
C289       C1214   1.387       .  A
C289        C292   1.378       .  A
C290       C1215   1.394       .  A
C290        C296   1.392       .  A
C291       C1216   1.386       .  A
C291        C299   1.381       .  A
C292       N1221   1.363       .  A
C292        H305   1.081       .  S
N293       C3076   1.363       .  A
N293        C294   1.365   1_655  A
N293        C367   1.459       .  S
C294        H295   1.077       .  S
C296       N1225   1.369       .  A
C296        H306   1.081       .  S
N297       C3080   1.369       .  A
N297        C298   1.362   1_655  A
C298        H304   1.081       .  S
C299       N1228   1.365       .  A
C299        H301   1.081       .  S
N300       C3083   1.365       .  A
N300        C302   1.365   1_655  A
N300        C353   1.463       .  S
C302        H303   1.076       .  S
C307        C309   1.543       .  S
C307        C311   1.544       .  S
C307        C310   1.552       .  S
C308        C312   1.540       .  S
C308        C314   1.538       .  S
C308        C313   1.556       .  S
C309        C317   1.378       .  A
C309        C312   1.387       .  A
C310        C321   1.391       .  A
C310        C313   1.394       .  A
C311        C325   1.380       .  A
C311        C314   1.387       .  A
C312        C315   1.378       .  A
C313        C319   1.389       .  A
C314        C322   1.376       .  A
C315        N316   1.367       .  A
C315        H328   1.077       .  S
N316        C317   1.362       .  A
N316        C426   1.461       .  S
C317        H318   1.081       .  S
C319        N320   1.362       .  A
C319        H329   1.081       .  S
N320        C321   1.369       .  A
N320        N807   1.427       .  S
C321        H327   1.081       .  S
C322        N323   1.365       .  A
C322        H324   1.077       .  S
N323        C325   1.363       .  A
N323        C412   1.460       .  S
C325        H326   1.082       .  S
C330        C332   1.542       .  S
C330        C334   1.543       .  S
C330        C333   1.555       .  S
C331        C335   1.525       .  S
C331        C337   1.528       .  S
C331        C336   1.554       .  S
C332        C340   1.384       .  A
C332        C335   1.391       .  A
C333        C344   1.388       .  A
C333        C336   1.395       .  A
C334        C348   1.384       .  A
C334        C337   1.392       .  A
C335        C338   1.363       .  A
C336        C342   1.392       .  A
C337        C345   1.365       .  A
C338        N339   1.346       .  A
C338        H351   1.076       .  S
N339        C340   1.358       .  A
N339        C437   1.433       .  S
C340        H341   1.082       .  S
C342        N343   1.370       .  A
C342        H352   1.081       .  S
N343        C344   1.361       .  A
N343        N784   1.427   1_545  S
C344        H350   1.081       .  S
C345        N346   1.347       .  A
C345        H347   1.077       .  S
N346        C348   1.358       .  A
N346        C451   1.434       .  S
C348        H349   1.082       .  S
C353        C354   1.416   1_655  A
C353       C3142   1.416       .  A
C354        C355   1.408       .  A
C354        C359   1.439       .  S
C355        C356   1.413   1_455  A
C355        C362   1.454       .  S
C356       C3141   1.425       .  A
C357       C1284   1.425       .  A
C357        C358   1.421       .  A
C357        C360   1.450       .  S
C358       C1281   1.416       .  A
C358        C361   1.450       .  S
C359        N366   1.154       .  T
C360        N365   1.157       .  T
C361        N363   1.157       .  T
C362        N364   1.157       .  T
C367        C368   1.415   1_655  A
C367       C3156   1.416       .  A
C368        C369   1.408       .  A
C368        C373   1.440       .  S
C369        C370   1.413   1_455  A
C369        C376   1.454       .  S
C370       C3155   1.424       .  A
C371       C1298   1.424       .  A
C371        C372   1.419       .  A
C371        C374   1.449       .  S
C372       C1295   1.416       .  A
C372        C375   1.451       .  S
C373        N380   1.154       .  T
C374        N379   1.157       .  T
C375        N377   1.157       .  T
C376        N378   1.157       .  T
C381        C382   1.421       .  A
C381       C3170   1.409       .  A
C382        C383   1.404       .  A
C382        C387   1.451       .  S
C383        C384   1.402       .  A
C383        C390   1.449       .  S
C384       C3169   1.410   1_455  A
C385       C1312   1.410       .  A
C385        C386   1.409       .  A
C385        C388   1.443       .  S
C386       C1309   1.409       .  A
C386        C389   1.450       .  S
C387        N858   1.157   1_545  T
C388        N393   1.156       .  T
C389        N391   1.157       .  T
C390        N392   1.156   1_545  T
N394        C851   1.157       .  T
C395        C396   1.409       .  A
C395       C3184   1.421       .  A
C396        C397   1.409       .  A
C396        C401   1.449   1_455  S
C397        C398   1.410       .  A
C397        C404   1.444   1_455  S
C398       C3183   1.400       .  A
C399       C1326   1.400       .  A
C399        C400   1.403       .  A
C399        C402   1.448       .  S
C400       C1323   1.421       .  A
C400        C403   1.450       .  S
C401        N408   1.157       .  T
C402        N407   1.156   1_545  T
C403        N869   1.157   1_545  T
C404        N406   1.156       .  T
N405        C867   1.157       .  T
C409        C410   1.411       .  A
C409        C414   1.425       .  A
C410        C411   1.406       .  A
C410        C415   1.454       .  S
C411        C412   1.414       .  A
C411        C418   1.436       .  S
C412        C413   1.414       .  A
C413        C414   1.420       .  A
C413        C416   1.450       .  S
C414        C417   1.450       .  S
C415        N422   1.157       .  T
C416        N421   1.157       .  T
C417        N419   1.157       .  T
C418        N420   1.153       .  T
C423        C424   1.424       .  A
C423        C428   1.414       .  A
C424        C425   1.419       .  A
C424        C429   1.450       .  S
C425        C426   1.417       .  A
C425        C432   1.450       .  S
C426        C427   1.416       .  A
C427        C428   1.408       .  A
C427        C430   1.438       .  S
C428        C431   1.454       .  S
C429        N436   1.157       .  T
C430        N435   1.154       .  T
C431        N433   1.157       .  T
C432        N434   1.157       .  T
C437        C438   1.401       .  A
C437        C442   1.410       .  A
C438        C439   1.404       .  A
C438        C443   1.449       .  S
C439        C440   1.422       .  A
C439        C446   1.451       .  S
C440        C441   1.409       .  A
C441        C442   1.408       .  A
C441        C444   1.449       .  S
C442        C445   1.445       .  S
C443        N450   1.156       .  T
C444        N449   1.157       .  T
C445        N447   1.156       .  T
C446        N448   1.157       .  T
C451        C452   1.410       .  A
C451        C456   1.401       .  A
C452        C453   1.409       .  A
C452        C457   1.445       .  S
C453        C454   1.409       .  A
C453        C460   1.449       .  S
C454        C455   1.421       .  A
C455        C456   1.405       .  A
C455        C458   1.451       .  S
C456        C459   1.449       .  S
C457        N464   1.156       .  T
C458        N463   1.157       .  T
C459        N461   1.156       .  T
C460        N462   1.157       .  T
O465        V473   1.885   1_554  S
O465        C475   1.261       .  A
O466        V705   1.889       .  S
O466        C476   1.265       .  A
O467        V473   1.886   1_554  S
O467        C477   1.263       .  A
O468        V705   1.881       .  S
O468        C478   1.259       .  A
O469        V474   1.901       .  S
O469        C478   1.266       .  A
O470        V706   1.909       .  S
O470        C477   1.267       .  A
O471        V474   1.908       .  S
O471        C476   1.266       .  A
O472        V706   1.900       .  S
O472        C475   1.265       .  A
V473        O698   1.890       .  S
V473        O700   1.881       .  S
V473        V706   2.084   1_556  T
V474        O702   1.909       .  S
V474        O704   1.900       .  S
V474        V705   2.084       .  T
C475        C686   1.481       .  S
C476        C641   1.502       .  S
C477        C655   1.503       .  S
C478        C672   1.480       .  S
O479       C1417   1.267       .  A
O480        V719   1.901       .  S
O480       C1418   1.266       .  A
O481        V487   1.899       .  S
O481       C1419   1.265       .  A
O482       C1420   1.266       .  A
O483        C492   1.264   1_455  A
O484        V720   1.881       .  S
O484        C491   1.260       .  A
O485        V488   1.882   1_554  S
O485        C490   1.260       .  A
O486        C489   1.264   1_455  A
V487        O712   1.901       .  S
V487       V1648   2.084       .  T
V488        O716   1.881       .  S
V488       V3503   2.084   1_456  T
C489       O3263   1.267       .  A
C489        C588   1.505       .  S
C490       O3264   1.266   1_455  A
C490        C627   1.479       .  S
C491       O3265   1.265   1_455  A
C491        C613   1.480       .  S
C492       O3266   1.266       .  A
C492        C602   1.503       .  S
C493        C495   1.542       .  S
C493        C497   1.545       .  S
C493        C496   1.556       .  S
C493        C563   1.559       .  S
C494        C498   1.527       .  S
C494        C500   1.527       .  S
C494        C499   1.554       .  S
C494        C562   1.559       .  S
C495        C503   1.384       .  A
C495       C1426   1.391       .  A
C496        C507   1.388       .  A
C496       C1427   1.395       .  A
C497        C511   1.386       .  A
C497       C1428   1.392       .  A
C498       C3279   1.391   1_455  A
C498        C501   1.364       .  A
C499       C3280   1.395   1_455  A
C499        C505   1.392       .  A
C500       C3281   1.392   1_455  A
C500        C508   1.365       .  A
C501        N502   1.347       .  A
C501        H514   1.076       .  S
N502       C3287   1.357   1_455  A
N502        C630   1.433       .  S
C503       N1430   1.357       .  A
C503        H504   1.082       .  S
C505        N506   1.370   1_455  A
C505        H515   1.081       .  S
N506       C3291   1.362       .  A
N506        N529   1.428       .  S
C507       N1434   1.362       .  A
C507        H513   1.081       .  S
C508        N509   1.347       .  A
C508        H510   1.077       .  S
N509       C3295   1.359   1_455  A
N509        C616   1.435       .  S
C511       N1437   1.359       .  A
C511        H512   1.082       .  S
C516        C518   1.537       .  S
C516        C520   1.537       .  S
C516        C519   1.557       .  S
C516        C539   1.561       .  S
C517        C521   1.544       .  S
C517        C523   1.546       .  S
C517        C522   1.552       .  S
C517        C540   1.562       .  S
C518        C526   1.376       .  A
C518       C3305   1.387   1_455  A
C519        C530   1.389       .  A
C519       C3306   1.394   1_455  A
C520        C534   1.375       .  A
C520       C3307   1.386   1_455  A
C521       C1446   1.387       .  A
C521        C524   1.378       .  A
C522       C1447   1.394       .  A
C522        C528   1.392       .  A
C523       C1448   1.386       .  A
C523        C531   1.381       .  A
C524       N1453   1.363       .  A
C524        H537   1.081       .  S
N525       C3308   1.363       .  A
N525        C526   1.365   1_655  A
N525        C599   1.459       .  S
C526        H527   1.077       .  S
C528       N1457   1.369       .  A
C528        H538   1.081       .  S
N529       C3312   1.369       .  A
N529        C530   1.362   1_655  A
C530        H536   1.081       .  S
C531       N1460   1.365       .  A
C531        H533   1.081       .  S
N532       C3315   1.365       .  A
N532        C534   1.365   1_655  A
N532        C585   1.463       .  S
C534        H535   1.076       .  S
C539        C541   1.542       .  S
C539        C543   1.544       .  S
C539        C542   1.552       .  S
C540        C544   1.540       .  S
C540        C546   1.538       .  S
C540        C545   1.556       .  S
C541        C549   1.378       .  A
C541        C544   1.387       .  A
C542        C553   1.391       .  A
C542        C545   1.394       .  A
C543        C557   1.380       .  A
C543        C546   1.387       .  A
C544        C547   1.378       .  A
C545        C551   1.389       .  A
C546        C554   1.377       .  A
C547        N548   1.367       .  A
C547        H560   1.077       .  S
N548        C549   1.362       .  A
N548        C658   1.461       .  S
C549        H550   1.081       .  S
C551        N552   1.362       .  A
C551        H561   1.081       .  S
N552        C553   1.369       .  A
C553        H559   1.081       .  S
C554        N555   1.365       .  A
C554        H556   1.077       .  S
N555        C557   1.363       .  A
N555        C644   1.460       .  S
C557        H558   1.082       .  S
C562        C564   1.542       .  S
C562        C566   1.543       .  S
C562        C565   1.555       .  S
C563        C567   1.525       .  S
C563        C569   1.528       .  S
C563        C568   1.554       .  S
C564        C572   1.384       .  A
C564        C567   1.391       .  A
C565        C576   1.388       .  A
C565        C568   1.395       .  A
C566        C580   1.384       .  A
C566        C569   1.392       .  A
C567        C570   1.363       .  A
C568        C574   1.392       .  A
C569        C577   1.365       .  A
C570        N571   1.346       .  A
C570        H583   1.076       .  S
N571        C572   1.358       .  A
N571        C669   1.433       .  S
C572        H573   1.082       .  S
C574        N575   1.370       .  A
C574        H584   1.081       .  S
N575        C576   1.361       .  A
C576        H582   1.081       .  S
C577        N578   1.347       .  A
C577        H579   1.077       .  S
N578        C580   1.358       .  A
N578        C683   1.434       .  S
C580        H581   1.082       .  S
C585        C586   1.416   1_655  A
C585       C3374   1.416       .  A
C586        C587   1.408       .  A
C586        C591   1.439       .  S
C587        C588   1.413   1_455  A
C587        C594   1.454       .  S
C588       C3373   1.425       .  A
C589       C1516   1.425       .  A
C589        C590   1.421       .  A
C589        C592   1.450   1_565  S
C590       C1513   1.416       .  A
C590        C593   1.450       .  S
C591        N598   1.154       .  T
C592        N597   1.157       .  T
C593        N595   1.157       .  T
C594        N596   1.157       .  T
C599        C600   1.415   1_655  A
C599       C3388   1.416       .  A
C600        C601   1.407       .  A
C600        C605   1.440       .  S
C601        C602   1.413   1_455  A
C601        C608   1.454       .  S
C602       C3387   1.424       .  A
C603       C1530   1.424       .  A
C603        C604   1.419       .  A
C603        C606   1.449       .  S
C604       C1527   1.416       .  A
C604        C607   1.451       .  S
C605        N612   1.154       .  T
C606        N611   1.157   1_565  T
C607        N609   1.157       .  T
C608        N610   1.157       .  T
C613        C614   1.421       .  A
C613       C3402   1.409       .  A
C614        C615   1.404       .  A
C614        C619   1.451       .  S
C615        C616   1.402       .  A
C615        C622   1.449       .  S
C616       C3401   1.410   1_455  A
C617       C1544   1.410       .  A
C617        C618   1.409       .  A
C617        C620   1.443       .  S
C618       C1541   1.409       .  A
C618        C621   1.450       .  S
C620        N625   1.156       .  T
C621        N623   1.157       .  T
C622        N624   1.156       .  T
C627        C628   1.409       .  A
C627       C3416   1.421       .  A
C628        C629   1.409       .  A
C628        C633   1.449   1_455  S
C629        C630   1.410       .  A
C629        C636   1.444   1_455  S
C630       C3415   1.400       .  A
C631       C1558   1.400       .  A
C631        C632   1.403       .  A
C631        C634   1.448       .  S
C632       C1555   1.421       .  A
C632        C635   1.450       .  S
C633        N640   1.157       .  T
C634        N639   1.156       .  T
C636        N638   1.156       .  T
C641        C642   1.411       .  A
C641        C646   1.425       .  A
C642        C643   1.406       .  A
C642        C647   1.454       .  S
C643        C644   1.414       .  A
C643        C650   1.436       .  S
C644        C645   1.414       .  A
C645        C646   1.420       .  A
C645        C648   1.450       .  S
C646        C649   1.450       .  S
C647        N654   1.157       .  T
C648        N653   1.157       .  T
C649        N651   1.157       .  T
C650        N652   1.153       .  T
C655        C656   1.424       .  A
C655        C660   1.414       .  A
C656        C657   1.419       .  A
C656        C661   1.450       .  S
C657        C658   1.417       .  A
C657        C664   1.450       .  S
C658        C659   1.416       .  A
C659        C660   1.408       .  A
C659        C662   1.438       .  S
C660        C663   1.454       .  S
C661        N668   1.157       .  T
C662        N667   1.154       .  T
C663        N665   1.157       .  T
C664        N666   1.157       .  T
C669        C670   1.401       .  A
C669        C674   1.410       .  A
C670        C671   1.404       .  A
C670        C675   1.449       .  S
C671        C672   1.422       .  A
C671        C678   1.451       .  S
C672        C673   1.409       .  A
C673        C674   1.408       .  A
C673        C676   1.449       .  S
C674        C677   1.445       .  S
C675        N682   1.156       .  T
C676        N681   1.157       .  T
C677        N679   1.156       .  T
C678        N680   1.157       .  T
C683        C684   1.410       .  A
C683        C688   1.401       .  A
C684        C685   1.409       .  A
C684        C689   1.445       .  S
C685        C686   1.409       .  A
C685        C692   1.449       .  S
C686        C687   1.421       .  A
C687        C688   1.405       .  A
C687        C690   1.451       .  S
C688        C691   1.449       .  S
C689        N696   1.156       .  T
C690        N695   1.157       .  T
C691        N693   1.156       .  T
C692        N694   1.157       .  T
O697        V705   1.885       .  S
O697        C707   1.261       .  A
O698        C708   1.265       .  A
O699        V705   1.885       .  S
O699        C709   1.263       .  A
O700        C710   1.259       .  A
O701        V706   1.901   1_556  S
O701        C710   1.266       .  A
O702        C709   1.267       .  A
O703        V706   1.908   1_556  S
O703        C708   1.266       .  A
O704        C707   1.265       .  A
C707        C918   1.481       .  S
C708        C873   1.502       .  S
C709        C887   1.503       .  S
C710        C904   1.480       .  S
O711       C1649   1.267       .  A
O712       C1650   1.266       .  A
O713        V719   1.899   1_556  S
O713       C1651   1.265       .  A
O714       C1652   1.266       .  A
O715        C724   1.264   1_455  A
O716        C723   1.260       .  A
O717        V720   1.882       .  S
O717        C722   1.260       .  A
O718        C721   1.264   1_455  A
V719       V1416   2.084   1_554  T
V720       V3271   2.084   1_455  T
C721       O3495   1.267       .  A
C721        C820   1.505       .  S
C722       O3496   1.266   1_455  A
C722        C859   1.479       .  S
C723       O3497   1.265   1_455  A
C723        C845   1.480       .  S
C724       O3498   1.266       .  A
C724        C834   1.503       .  S
C725        C727   1.542       .  S
C725        C729   1.545       .  S
C725        C728   1.556       .  S
C725        C795   1.559       .  S
C726        C730   1.527       .  S
C726        C732   1.527       .  S
C726        C731   1.554       .  S
C726        C794   1.559       .  S
C727        C735   1.384       .  A
C727       C1658   1.391       .  A
C728        C739   1.388       .  A
C728       C1659   1.395       .  A
C729        C743   1.386       .  A
C729       C1660   1.392       .  A
C730       C3511   1.391   1_455  A
C730        C733   1.364       .  A
C731       C3512   1.395   1_455  A
C731        C737   1.392       .  A
C732       C3513   1.392   1_455  A
C732        C740   1.365       .  A
C733        N734   1.347       .  A
C733        H746   1.076       .  S
N734       C3519   1.357   1_455  A
N734        C862   1.433       .  S
C735       N1662   1.357       .  A
C735        H736   1.082       .  S
C737        N738   1.370   1_455  A
C737        H747   1.081       .  S
N738       C3523   1.362       .  A
N738        N761   1.428       .  S
C739       N1666   1.362       .  A
C739        H745   1.081       .  S
C740        N741   1.347       .  A
C740        H742   1.077       .  S
N741       C3527   1.359   1_455  A
N741        C848   1.435       .  S
C743       N1669   1.359       .  A
C743        H744   1.082       .  S
C748        C750   1.537       .  S
C748        C752   1.537       .  S
C748        C751   1.557       .  S
C748        C771   1.561       .  S
C749        C753   1.544       .  S
C749        C755   1.546       .  S
C749        C754   1.552       .  S
C749        C772   1.562       .  S
C750        C758   1.376       .  A
C750       C3537   1.387   1_455  A
C751        C762   1.389       .  A
C751       C3538   1.394   1_455  A
C752        C766   1.375       .  A
C752       C3539   1.386   1_455  A
C753       C1678   1.387       .  A
C753        C756   1.378       .  A
C754       C1679   1.394       .  A
C754        C760   1.392       .  A
C755       C1680   1.386       .  A
C755        C763   1.381       .  A
C756       N1685   1.363       .  A
C756        H769   1.081       .  S
N757       C3540   1.363       .  A
N757        C758   1.365   1_655  A
N757        C831   1.459       .  S
C758        H759   1.077       .  S
C760       N1689   1.369       .  A
C760        H770   1.081       .  S
N761       C3544   1.369       .  A
N761        C762   1.362   1_655  A
C762        H768   1.081       .  S
C763       N1692   1.365       .  A
C763        H765   1.081       .  S
N764       C3547   1.365       .  A
N764        C766   1.365   1_655  A
N764        C817   1.463       .  S
C766        H767   1.076       .  S
C771        C773   1.543       .  S
C771        C775   1.544       .  S
C771        C774   1.552       .  S
C772        C776   1.540       .  S
C772        C778   1.538       .  S
C772        C777   1.556       .  S
C773        C781   1.378       .  A
C773        C776   1.387       .  A
C774        C785   1.391       .  A
C774        C777   1.394       .  A
C775        C789   1.380       .  A
C775        C778   1.387       .  A
C776        C779   1.378       .  A
C777        C783   1.389       .  A
C778        C786   1.376       .  A
C779        N780   1.367       .  A
C779        H792   1.077       .  S
N780        C781   1.362       .  A
N780        C890   1.461       .  S
C781        H782   1.081       .  S
C783        N784   1.362       .  A
C783        H793   1.081       .  S
N784        C785   1.369       .  A
C785        H791   1.081       .  S
C786        N787   1.365       .  A
C786        H788   1.077       .  S
N787        C789   1.363       .  A
N787        C876   1.460       .  S
C789        H790   1.082       .  S
C794        C796   1.542       .  S
C794        C798   1.543       .  S
C794        C797   1.555       .  S
C795        C799   1.525       .  S
C795        C801   1.528       .  S
C795        C800   1.554       .  S
C796        C804   1.384       .  A
C796        C799   1.391       .  A
C797        C808   1.388       .  A
C797        C800   1.395       .  A
C798        C812   1.384       .  A
C798        C801   1.392       .  A
C799        C802   1.363       .  A
C800        C806   1.392       .  A
C801        C809   1.365       .  A
C802        N803   1.346       .  A
C802        H815   1.076       .  S
N803        C804   1.358       .  A
N803        C901   1.433       .  S
C804        H805   1.082       .  S
C806        N807   1.370       .  A
C806        H816   1.081       .  S
N807        C808   1.361       .  A
C808        H814   1.081       .  S
C809        N810   1.347       .  A
C809        H811   1.077       .  S
N810        C812   1.358       .  A
N810        C915   1.434       .  S
C812        H813   1.082       .  S
C817        C818   1.416   1_655  A
C817       C3606   1.416       .  A
C818        C819   1.408       .  A
C818        C823   1.439       .  S
C819        C820   1.413   1_455  A
C819        C826   1.454       .  S
C820       C3605   1.425       .  A
C821       C1748   1.425       .  A
C821        C822   1.421       .  A
C821        C824   1.450   1_565  S
C822       C1745   1.416       .  A
C822        C825   1.450       .  S
C823        N830   1.154       .  T
C824        N829   1.157       .  T
C825        N827   1.157       .  T
C826        N828   1.157       .  T
C831        C832   1.415   1_655  A
C831       C3620   1.416       .  A
C832        C833   1.408       .  A
C832        C837   1.440       .  S
C833        C834   1.413   1_455  A
C833        C840   1.454       .  S
C834       C3619   1.424       .  A
C835       C1762   1.424       .  A
C835        C836   1.419       .  A
C835        C838   1.449       .  S
C836       C1759   1.416       .  A
C836        C839   1.451       .  S
C837        N844   1.154       .  T
C838        N843   1.157   1_565  T
C839        N841   1.157       .  T
C840        N842   1.157       .  T
C845        C846   1.421       .  A
C845       C3634   1.409       .  A
C846        C847   1.404       .  A
C846        C851   1.451       .  S
C847        C848   1.402       .  A
C847        C854   1.449       .  S
C848       C3633   1.410   1_455  A
C849       C1776   1.410       .  A
C849        C850   1.409       .  A
C849        C852   1.443       .  S
C850       C1773   1.409       .  A
C850        C853   1.450       .  S
C852        N857   1.156       .  T
C853        N855   1.157       .  T
C854        N856   1.156       .  T
C859        C860   1.409       .  A
C859       C3648   1.421       .  A
C860        C861   1.409       .  A
C860        C865   1.449   1_455  S
C861        C862   1.410       .  A
C861        C868   1.444   1_455  S
C862       C3647   1.400       .  A
C863       C1790   1.400       .  A
C863        C864   1.403       .  A
C863        C866   1.448       .  S
C864       C1787   1.421       .  A
C864        C867   1.450       .  S
C865        N872   1.157       .  T
C866        N871   1.156       .  T
C868        N870   1.156       .  T
C873        C874   1.411       .  A
C873        C878   1.425       .  A
C874        C875   1.406       .  A
C874        C879   1.454       .  S
C875        C876   1.414       .  A
C875        C882   1.436       .  S
C876        C877   1.414       .  A
C877        C878   1.420       .  A
C877        C880   1.450       .  S
C878        C881   1.450       .  S
C879        N886   1.157       .  T
C880        N885   1.157       .  T
C881        N883   1.157       .  T
C882        N884   1.153       .  T
C887        C888   1.424       .  A
C887        C892   1.414       .  A
C888        C889   1.419       .  A
C888        C893   1.450       .  S
C889        C890   1.417       .  A
C889        C896   1.450       .  S
C890        C891   1.416       .  A
C891        C892   1.408       .  A
C891        C894   1.438       .  S
C892        C895   1.454       .  S
C893        N900   1.157       .  T
C894        N899   1.154       .  T
C895        N897   1.157       .  T
C896        N898   1.157       .  T
C901        C902   1.401       .  A
C901        C906   1.410       .  A
C902        C903   1.404       .  A
C902        C907   1.449       .  S
C903        C904   1.422       .  A
C903        C910   1.451       .  S
C904        C905   1.409       .  A
C905        C906   1.408       .  A
C905        C908   1.449       .  S
C906        C909   1.445       .  S
C907        N914   1.156       .  T
C908        N913   1.157       .  T
C909        N911   1.156       .  T
C910        N912   1.157       .  T
C915        C916   1.410       .  A
C915        C920   1.402       .  A
C916        C917   1.409       .  A
C916        C921   1.445       .  S
C917        C918   1.409       .  A
C917        C924   1.449       .  S
C918        C919   1.421       .  A
C919        C920   1.405       .  A
C919        C922   1.451       .  S
C920        C923   1.449       .  S
C921        N928   1.156       .  T
C922        N927   1.157       .  T
C923        N925   1.156       .  T
C924        N926   1.157       .  T
O929        V937   1.885   1_554  S
O929        C939   1.261       .  A
O930       V1169   1.889       .  S
O930        C940   1.265       .  A
O931        V937   1.886   1_554  S
O931        C941   1.263       .  A
O932       V1169   1.881       .  S
O932        C942   1.259       .  A
O933        V938   1.901       .  S
O933        C942   1.266       .  A
O934       V1170   1.909       .  S
O934        C941   1.267       .  A
O935        V938   1.908       .  S
O935        C940   1.266       .  A
O936       V1170   1.900       .  S
O936        C939   1.265       .  A
V937       O1162   1.890       .  S
V937       O1164   1.881       .  S
V937       V1170   2.084   1_556  T
V938       O1166   1.909       .  S
V938       O1168   1.900       .  S
V938       V1169   2.084       .  T
C939       C1150   1.481       .  S
C940       C1105   1.502       .  S
C941       C1119   1.503       .  S
C942       C1136   1.480       .  S
O943       V1415   1.910       .  S
O943       C1881   1.267       .  A
O944       V1183   1.901       .  S
O944       C1882   1.266       .  A
O945        V951   1.899       .  S
O945       C1883   1.265       .  A
O946       V1647   1.908       .  S
O946       C1884   1.266       .  A
O947       V1416   1.886   1_554  S
O947        C956   1.264       .  A
O948       V1184   1.881   1_545  S
O948        C955   1.260       .  A
O949        V952   1.882   1_544  S
O949        C954   1.260       .  A
O950       V1648   1.887       .  S
O950        C953   1.264       .  A
V951       O1407   1.910   1_545  S
V951       O1176   1.901       .  S
V951       O1642   1.908   1_545  S
V951       V2112   2.084   1_545  T
V952       O1411   1.886   1_556  S
V952       O1180   1.881   1_565  S
V952       O1646   1.887       .  S
C953       C1052   1.505       .  S
C954       C1091   1.479       .  S
C955       C1077   1.480       .  S
C956       C1066   1.503       .  S
C957        C959   1.542       .  S
C957        C961   1.545       .  S
C957        C960   1.556       .  S
C957       C1027   1.559       .  S
C958        C962   1.527       .  S
C958        C964   1.527       .  S
C958        C963   1.554       .  S
C958       C1026   1.559       .  S
C959        C967   1.384       .  A
C959       C1890   1.391       .  A
C960        C971   1.388       .  A
C960       C1891   1.395       .  A
C961        C975   1.386       .  A
C961       C1892   1.392       .  A
C962        C965   1.364       .  A
C963        C969   1.392       .  A
C964        C972   1.365       .  A
C965        N966   1.347       .  A
C965        H978   1.076       .  S
N966       C1094   1.433       .  S
C967       N1894   1.357       .  A
C967        H968   1.082       .  S
C969        N970   1.370       .  A
C969        H979   1.081       .  S
N970        N993   1.428       .  S
C971       N1898   1.362       .  A
C971        H977   1.081       .  S
C972        N973   1.347       .  A
C972        H974   1.077       .  S
N973       C1080   1.435       .  S
C975       N1901   1.359       .  A
C975        H976   1.082       .  S
C980        C982   1.537       .  S
C980        C984   1.537       .  S
C980        C983   1.557       .  S
C980       C1003   1.561       .  S
C981        C985   1.544       .  S
C981        C987   1.546       .  S
C981        C986   1.552       .  S
C981       C1004   1.562       .  S
C982        C990   1.376       .  A
C983        C994   1.389       .  A
C984        C998   1.375       .  A
C985       C1910   1.387       .  A
C985        C988   1.378       .  A
C986       C1911   1.394       .  A
C986        C992   1.392       .  A
C987       C1912   1.386       .  A
C987        C995   1.381       .  A
C988       N1917   1.363       .  A
C988       H1001   1.081       .  S
N989        C990   1.365       .  A
N989       C1063   1.459       .  S
C990        H991   1.077       .  S
C992       N1921   1.369       .  A
C992       H1002   1.081       .  S
N993        C994   1.362       .  A
C994       H1000   1.081       .  S
C995       N1924   1.365       .  A
C995        H997   1.081       .  S
N996        C998   1.365       .  A
N996       C1049   1.463       .  S
C998        H999   1.076       .  S
C1003      C1005   1.542       .  S
C1003      C1007   1.544       .  S
C1003      C1006   1.552       .  S
C1004      C1008   1.540       .  S
C1004      C1010   1.538       .  S
C1004      C1009   1.556       .  S
C1005      C1013   1.378       .  A
C1005      C1008   1.387       .  A
C1006      C1017   1.391       .  A
C1006      C1009   1.394       .  A
C1007      C1021   1.380       .  A
C1007      C1010   1.387       .  A
C1008      C1011   1.378       .  A
C1009      C1015   1.389       .  A
C1010      C1018   1.377       .  A
C1011      N1012   1.367       .  A
C1011      H1024   1.077       .  S
N1012      C1013   1.362       .  A
N1012      C1122   1.461       .  S
C1013      H1014   1.081       .  S
C1015      N1016   1.362       .  A
C1015      H1025   1.081       .  S
N1016      C1017   1.369       .  A
N1016      N1503   1.427       .  S
C1017      H1023   1.081       .  S
C1018      N1019   1.365       .  A
C1018      H1020   1.077       .  S
N1019      C1021   1.363       .  A
N1019      C1108   1.460       .  S
C1021      H1022   1.082       .  S
C1026      C1028   1.542       .  S
C1026      C1030   1.543       .  S
C1026      C1029   1.555       .  S
C1027      C1031   1.525       .  S
C1027      C1033   1.528       .  S
C1027      C1032   1.554       .  S
C1028      C1036   1.384       .  A
C1028      C1031   1.391       .  A
C1029      C1040   1.388       .  A
C1029      C1032   1.395       .  A
C1030      C1044   1.384       .  A
C1030      C1033   1.392       .  A
C1031      C1034   1.363       .  A
C1032      C1038   1.392       .  A
C1033      C1041   1.365       .  A
C1034      N1035   1.346       .  A
C1034      H1047   1.076       .  S
N1035      C1036   1.358       .  A
N1035      C1133   1.433       .  S
C1036      H1037   1.082       .  S
C1038      N1039   1.370       .  A
C1038      H1048   1.081       .  S
N1039      C1040   1.361       .  A
N1039      N1480   1.427   1_545  S
C1040      H1046   1.081       .  S
C1041      N1042   1.347       .  A
C1041      H1043   1.077       .  S
N1042      C1044   1.358       .  A
N1042      C1147   1.434       .  S
C1044      H1045   1.082       .  S
C1049      C1050   1.416       .  A
C1050      C1051   1.408       .  A
C1050      C1055   1.439       .  S
C1051      C1052   1.413       .  A
C1051      C1058   1.454       .  S
C1053      C1980   1.425       .  A
C1053      C1054   1.421       .  A
C1053      C1056   1.450       .  S
C1054      C1977   1.416       .  A
C1054      C1057   1.450       .  S
C1055      N1062   1.154       .  T
C1056      N1061   1.157       .  T
C1057      N1059   1.157       .  T
C1058      N1060   1.157       .  T
C1063      C1064   1.415       .  A
C1064      C1065   1.407       .  A
C1064      C1069   1.440       .  S
C1065      C1066   1.413       .  A
C1065      C1072   1.454       .  S
C1067      C1994   1.424       .  A
C1067      C1068   1.419       .  A
C1067      C1070   1.449       .  S
C1068      C1991   1.416       .  A
C1068      C1071   1.451       .  S
C1069      N1076   1.154       .  T
C1070      N1075   1.157       .  T
C1071      N1073   1.157       .  T
C1072      N1074   1.157       .  T
C1077      C1078   1.421       .  A
C1078      C1079   1.404       .  A
C1078      C1083   1.451       .  S
C1079      C1080   1.402       .  A
C1079      C1086   1.449       .  S
C1081      C2008   1.410       .  A
C1081      C1082   1.409       .  A
C1081      C1084   1.443       .  S
C1082      C2005   1.409       .  A
C1082      C1085   1.450       .  S
C1083      N1554   1.157   1_545  T
C1084      N1089   1.156       .  T
C1085      N1087   1.157       .  T
C1086      N1088   1.156   1_545  T
N1090      C1547   1.157       .  T
C1091      C1092   1.409       .  A
C1092      C1093   1.409       .  A
C1092      C1097   1.449       .  S
C1093      C1094   1.410       .  A
C1093      C1100   1.444       .  S
C1095      C2022   1.400       .  A
C1095      C1096   1.403       .  A
C1095      C1098   1.448       .  S
C1096      C2019   1.421       .  A
C1096      C1099   1.450       .  S
C1097      N1104   1.157       .  T
C1098      N1103   1.156   1_545  T
C1099      N1565   1.157   1_545  T
C1100      N1102   1.156       .  T
N1101      C1563   1.157       .  T
C1105      C1106   1.411       .  A
C1105      C1110   1.425       .  A
C1106      C1107   1.406       .  A
C1106      C1111   1.454       .  S
C1107      C1108   1.414       .  A
C1107      C1114   1.436       .  S
C1108      C1109   1.414       .  A
C1109      C1110   1.420       .  A
C1109      C1112   1.450       .  S
C1110      C1113   1.450       .  S
C1111      N1118   1.157       .  T
C1112      N1117   1.157       .  T
C1113      N1115   1.157       .  T
C1114      N1116   1.153       .  T
C1119      C1120   1.424       .  A
C1119      C1124   1.414       .  A
C1120      C1121   1.419       .  A
C1120      C1125   1.450       .  S
C1121      C1122   1.417       .  A
C1121      C1128   1.450       .  S
C1122      C1123   1.416       .  A
C1123      C1124   1.408       .  A
C1123      C1126   1.438       .  S
C1124      C1127   1.454       .  S
C1125      N1132   1.157       .  T
C1126      N1131   1.154       .  T
C1127      N1129   1.157       .  T
C1128      N1130   1.157       .  T
C1133      C1134   1.401       .  A
C1133      C1138   1.410       .  A
C1134      C1135   1.404       .  A
C1134      C1139   1.449       .  S
C1135      C1136   1.422       .  A
C1135      C1142   1.451       .  S
C1136      C1137   1.409       .  A
C1137      C1138   1.408       .  A
C1137      C1140   1.449       .  S
C1138      C1141   1.445       .  S
C1139      N1146   1.156       .  T
C1140      N1145   1.157       .  T
C1141      N1143   1.156       .  T
C1142      N1144   1.157       .  T
C1147      C1148   1.410       .  A
C1147      C1152   1.401       .  A
C1148      C1149   1.409       .  A
C1148      C1153   1.445       .  S
C1149      C1150   1.409       .  A
C1149      C1156   1.449       .  S
C1150      C1151   1.421       .  A
C1151      C1152   1.405       .  A
C1151      C1154   1.451       .  S
C1152      C1155   1.449       .  S
C1153      N1160   1.156       .  T
C1154      N1159   1.157       .  T
C1155      N1157   1.156       .  T
C1156      N1158   1.157       .  T
O1161      V1169   1.885       .  S
O1161      C1171   1.261       .  A
O1162      C1172   1.265       .  A
O1163      V1169   1.885       .  S
O1163      C1173   1.263       .  A
O1164      C1174   1.259       .  A
O1165      V1170   1.901   1_556  S
O1165      C1174   1.266       .  A
O1166      C1173   1.267       .  A
O1167      V1170   1.908   1_556  S
O1167      C1172   1.266       .  A
O1168      C1171   1.265       .  A
C1171      C1382   1.481       .  S
C1172      C1337   1.502       .  S
C1173      C1351   1.503       .  S
C1174      C1368   1.480       .  S
O1175      V1647   1.910   1_556  S
O1175      C2113   1.267       .  A
O1176      C2114   1.266       .  A
O1177      V1183   1.899   1_556  S
O1177      C2115   1.265       .  A
O1178      V1415   1.908       .  S
O1178      C2116   1.266       .  A
O1179      V1648   1.886       .  S
O1179      C1188   1.264       .  A
O1180      C1187   1.260       .  A
O1181      V1184   1.882   1_545  S
O1181      C1186   1.260       .  A
O1182      V1416   1.887       .  S
O1182      C1185   1.264       .  A
V1183      O1639   1.910   1_544  S
V1183      O1410   1.908   1_545  S
V1183      V1880   2.084   1_544  T
V1184      O1643   1.886       .  S
V1184      O1414   1.887       .  S
C1185      C1284   1.505       .  S
C1186      C1323   1.479       .  S
C1187      C1309   1.480       .  S
C1188      C1298   1.503       .  S
C1189      C1191   1.542       .  S
C1189      C1193   1.545       .  S
C1189      C1192   1.556       .  S
C1189      C1259   1.559       .  S
C1190      C1194   1.527       .  S
C1190      C1196   1.527       .  S
C1190      C1195   1.554       .  S
C1190      C1258   1.559       .  S
C1191      C1199   1.384       .  A
C1191      C2122   1.391       .  A
C1192      C1203   1.388       .  A
C1192      C2123   1.395       .  A
C1193      C1207   1.386       .  A
C1193      C2124   1.392       .  A
C1194      C1197   1.364       .  A
C1195      C1201   1.392       .  A
C1196      C1204   1.365       .  A
C1197      N1198   1.347       .  A
C1197      H1210   1.076       .  S
N1198      C1326   1.433       .  S
C1199      N2126   1.357       .  A
C1199      H1200   1.082       .  S
C1201      N1202   1.370       .  A
C1201      H1211   1.081       .  S
N1202      N1225   1.428       .  S
C1203      N2130   1.362       .  A
C1203      H1209   1.081       .  S
C1204      N1205   1.347       .  A
C1204      H1206   1.077       .  S
N1205      C1312   1.435       .  S
C1207      N2133   1.359       .  A
C1207      H1208   1.082       .  S
C1212      C1214   1.537       .  S
C1212      C1216   1.537       .  S
C1212      C1215   1.557       .  S
C1212      C1235   1.561       .  S
C1213      C1217   1.544       .  S
C1213      C1219   1.546       .  S
C1213      C1218   1.552       .  S
C1213      C1236   1.562       .  S
C1214      C1222   1.376       .  A
C1215      C1226   1.389       .  A
C1216      C1230   1.375       .  A
C1217      C2142   1.387       .  A
C1217      C1220   1.378       .  A
C1218      C2143   1.394       .  A
C1218      C1224   1.392       .  A
C1219      C2144   1.386       .  A
C1219      C1227   1.381       .  A
C1220      N2149   1.363       .  A
C1220      H1233   1.081       .  S
N1221      C1222   1.365       .  A
N1221      C1295   1.459       .  S
C1222      H1223   1.077       .  S
C1224      N2153   1.369       .  A
C1224      H1234   1.081       .  S
N1225      C1226   1.362       .  A
C1226      H1232   1.081       .  S
C1227      N2156   1.365       .  A
C1227      H1229   1.081       .  S
N1228      C1230   1.365       .  A
N1228      C1281   1.463       .  S
C1230      H1231   1.076       .  S
C1235      C1237   1.543       .  S
C1235      C1239   1.544       .  S
C1235      C1238   1.552       .  S
C1236      C1240   1.540       .  S
C1236      C1242   1.538       .  S
C1236      C1241   1.556       .  S
C1237      C1245   1.378       .  A
C1237      C1240   1.387       .  A
C1238      C1249   1.391       .  A
C1238      C1241   1.394       .  A
C1239      C1253   1.380       .  A
C1239      C1242   1.387       .  A
C1240      C1243   1.378       .  A
C1241      C1247   1.389       .  A
C1242      C1250   1.376       .  A
C1243      N1244   1.367       .  A
C1243      H1256   1.077       .  S
N1244      C1245   1.362       .  A
N1244      C1354   1.461       .  S
C1245      H1246   1.081       .  S
C1247      N1248   1.362       .  A
C1247      H1257   1.081       .  S
N1248      C1249   1.369       .  A
N1248      N1735   1.427       .  S
C1249      H1255   1.081       .  S
C1250      N1251   1.365       .  A
C1250      H1252   1.077       .  S
N1251      C1253   1.363       .  A
N1251      C1340   1.460       .  S
C1253      H1254   1.082       .  S
C1258      C1260   1.542       .  S
C1258      C1262   1.543       .  S
C1258      C1261   1.555       .  S
C1259      C1263   1.525       .  S
C1259      C1265   1.528       .  S
C1259      C1264   1.554       .  S
C1260      C1268   1.384       .  A
C1260      C1263   1.391       .  A
C1261      C1272   1.388       .  A
C1261      C1264   1.395       .  A
C1262      C1276   1.384       .  A
C1262      C1265   1.392       .  A
C1263      C1266   1.363       .  A
C1264      C1270   1.392       .  A
C1265      C1273   1.365       .  A
C1266      N1267   1.346       .  A
C1266      H1279   1.076       .  S
N1267      C1268   1.358       .  A
N1267      C1365   1.433       .  S
C1268      H1269   1.082       .  S
C1270      N1271   1.370       .  A
C1270      H1280   1.081       .  S
N1271      C1272   1.361       .  A
N1271      N1712   1.427   1_545  S
C1272      H1278   1.081       .  S
C1273      N1274   1.347       .  A
C1273      H1275   1.077       .  S
N1274      C1276   1.358       .  A
N1274      C1379   1.434       .  S
C1276      H1277   1.082       .  S
C1281      C1282   1.416       .  A
C1282      C1283   1.408       .  A
C1282      C1287   1.439       .  S
C1283      C1284   1.413       .  A
C1283      C1290   1.454       .  S
C1285      C2212   1.425       .  A
C1285      C1286   1.421       .  A
C1285      C1288   1.450       .  S
C1286      C2209   1.416       .  A
C1286      C1289   1.450       .  S
C1287      N1294   1.154       .  T
C1288      N1293   1.157       .  T
C1289      N1291   1.157       .  T
C1290      N1292   1.157       .  T
C1295      C1296   1.415       .  A
C1296      C1297   1.408       .  A
C1296      C1301   1.440       .  S
C1297      C1298   1.413       .  A
C1297      C1304   1.454       .  S
C1299      C2226   1.424       .  A
C1299      C1300   1.419       .  A
C1299      C1302   1.449       .  S
C1300      C2223   1.416       .  A
C1300      C1303   1.451       .  S
C1301      N1308   1.154       .  T
C1302      N1307   1.157       .  T
C1303      N1305   1.157       .  T
C1304      N1306   1.157       .  T
C1309      C1310   1.421       .  A
C1310      C1311   1.404       .  A
C1310      C1315   1.451       .  S
C1311      C1312   1.402       .  A
C1311      C1318   1.449       .  S
C1313      C2240   1.410       .  A
C1313      C1314   1.409       .  A
C1313      C1316   1.443       .  S
C1314      C2237   1.409       .  A
C1314      C1317   1.450       .  S
C1315      N1786   1.157   1_545  T
C1316      N1321   1.156       .  T
C1317      N1319   1.157       .  T
C1318      N1320   1.156   1_545  T
N1322      C1779   1.157       .  T
C1323      C1324   1.409       .  A
C1324      C1325   1.409       .  A
C1324      C1329   1.449       .  S
C1325      C1326   1.410       .  A
C1325      C1332   1.444       .  S
C1327      C2254   1.400       .  A
C1327      C1328   1.403       .  A
C1327      C1330   1.448       .  S
C1328      C2251   1.421       .  A
C1328      C1331   1.450       .  S
C1329      N1336   1.157       .  T
C1330      N1335   1.156   1_545  T
C1331      N1797   1.157   1_545  T
C1332      N1334   1.156       .  T
N1333      C1795   1.157       .  T
C1337      C1338   1.411       .  A
C1337      C1342   1.425       .  A
C1338      C1339   1.406       .  A
C1338      C1343   1.454       .  S
C1339      C1340   1.414       .  A
C1339      C1346   1.436       .  S
C1340      C1341   1.414       .  A
C1341      C1342   1.420       .  A
C1341      C1344   1.450       .  S
C1342      C1345   1.450       .  S
C1343      N1350   1.157       .  T
C1344      N1349   1.157       .  T
C1345      N1347   1.157       .  T
C1346      N1348   1.153       .  T
C1351      C1352   1.424       .  A
C1351      C1356   1.414       .  A
C1352      C1353   1.419       .  A
C1352      C1357   1.450       .  S
C1353      C1354   1.417       .  A
C1353      C1360   1.450       .  S
C1354      C1355   1.416       .  A
C1355      C1356   1.408       .  A
C1355      C1358   1.438       .  S
C1356      C1359   1.454       .  S
C1357      N1364   1.157       .  T
C1358      N1363   1.154       .  T
C1359      N1361   1.157       .  T
C1360      N1362   1.157       .  T
C1365      C1366   1.401       .  A
C1365      C1370   1.410       .  A
C1366      C1367   1.404       .  A
C1366      C1371   1.449       .  S
C1367      C1368   1.422       .  A
C1367      C1374   1.451       .  S
C1368      C1369   1.409       .  A
C1369      C1370   1.408       .  A
C1369      C1372   1.449       .  S
C1370      C1373   1.445       .  S
C1371      N1378   1.156       .  T
C1372      N1377   1.157       .  T
C1373      N1375   1.156       .  T
C1374      N1376   1.157       .  T
C1379      C1380   1.410       .  A
C1379      C1384   1.401       .  A
C1380      C1381   1.409       .  A
C1380      C1385   1.445       .  S
C1381      C1382   1.409       .  A
C1381      C1388   1.449       .  S
C1382      C1383   1.421       .  A
C1383      C1384   1.405       .  A
C1383      C1386   1.451       .  S
C1384      C1387   1.449       .  S
C1385      N1392   1.156       .  T
C1386      N1391   1.157       .  T
C1387      N1389   1.156       .  T
C1388      N1390   1.157       .  T
O1393      V1401   1.885   1_554  S
O1393      C1403   1.261       .  A
O1394      V1633   1.889       .  S
O1394      C1404   1.265       .  A
O1395      V1401   1.886   1_554  S
O1395      C1405   1.263       .  A
O1396      V1633   1.881       .  S
O1396      C1406   1.259       .  A
O1397      V1402   1.901       .  S
O1397      C1406   1.266       .  A
O1398      V1634   1.909       .  S
O1398      C1405   1.267       .  A
O1399      V1402   1.908       .  S
O1399      C1404   1.266       .  A
O1400      V1634   1.900       .  S
O1400      C1403   1.265       .  A
V1401      O1626   1.890       .  S
V1401      O1628   1.881       .  S
V1401      V1634   2.084   1_556  T
V1402      O1630   1.909       .  S
V1402      O1632   1.900       .  S
V1402      V1633   2.084       .  T
C1403      C1614   1.481       .  S
C1404      C1569   1.502       .  S
C1405      C1583   1.503       .  S
C1406      C1600   1.480       .  S
O1407      C2345   1.267       .  A
O1408      V1647   1.901       .  S
O1408      C2346   1.266       .  A
O1409      V1415   1.899       .  S
O1409      C2347   1.265       .  A
O1410      C2348   1.266       .  A
O1411      C1420   1.264       .  A
O1412      V1648   1.881       .  S
O1412      C1419   1.260       .  A
O1413      V1416   1.882   1_554  S
O1413      C1418   1.260       .  A
O1414      C1417   1.264       .  A
V1415      O1640   1.901       .  S
V1415      V2576   2.084       .  T
V1416      O1644   1.881       .  S
C1417      C1516   1.505       .  S
C1418      C1555   1.479       .  S
C1419      C1541   1.480       .  S
C1420      C1530   1.503       .  S
C1421      C1423   1.542       .  S
C1421      C1425   1.545       .  S
C1421      C1424   1.556       .  S
C1421      C1491   1.559       .  S
C1422      C1426   1.527       .  S
C1422      C1428   1.527       .  S
C1422      C1427   1.554       .  S
C1422      C1490   1.559       .  S
C1423      C1431   1.384       .  A
C1423      C2354   1.391       .  A
C1424      C1435   1.388       .  A
C1424      C2355   1.395       .  A
C1425      C1439   1.386       .  A
C1425      C2356   1.392       .  A
C1426      C1429   1.364       .  A
C1427      C1433   1.392       .  A
C1428      C1436   1.365       .  A
C1429      N1430   1.347       .  A
C1429      H1442   1.076       .  S
N1430      C1558   1.433       .  S
C1431      N2358   1.357       .  A
C1431      H1432   1.082       .  S
C1433      N1434   1.370       .  A
C1433      H1443   1.081       .  S
N1434      N1457   1.428       .  S
C1435      N2362   1.362       .  A
C1435      H1441   1.081       .  S
C1436      N1437   1.347       .  A
C1436      H1438   1.077       .  S
N1437      C1544   1.435       .  S
C1439      N2365   1.359       .  A
C1439      H1440   1.082       .  S
C1444      C1446   1.537       .  S
C1444      C1448   1.537       .  S
C1444      C1447   1.557       .  S
C1444      C1467   1.561       .  S
C1445      C1449   1.544       .  S
C1445      C1451   1.546       .  S
C1445      C1450   1.552       .  S
C1445      C1468   1.562       .  S
C1446      C1454   1.376       .  A
C1447      C1458   1.389       .  A
C1448      C1462   1.375       .  A
C1449      C2374   1.387       .  A
C1449      C1452   1.378       .  A
C1450      C2375   1.394       .  A
C1450      C1456   1.392       .  A
C1451      C2376   1.386       .  A
C1451      C1459   1.381       .  A
C1452      N2381   1.363       .  A
C1452      H1465   1.081       .  S
N1453      C1454   1.365       .  A
N1453      C1527   1.459       .  S
C1454      H1455   1.077       .  S
C1456      N2385   1.369       .  A
C1456      H1466   1.081       .  S
N1457      C1458   1.362       .  A
C1458      H1464   1.081       .  S
C1459      N2388   1.365       .  A
C1459      H1461   1.081       .  S
N1460      C1462   1.365       .  A
N1460      C1513   1.463       .  S
C1462      H1463   1.076       .  S
C1467      C1469   1.542       .  S
C1467      C1471   1.544       .  S
C1467      C1470   1.552       .  S
C1468      C1472   1.540       .  S
C1468      C1474   1.538       .  S
C1468      C1473   1.556       .  S
C1469      C1477   1.378       .  A
C1469      C1472   1.387       .  A
C1470      C1481   1.391       .  A
C1470      C1473   1.394       .  A
C1471      C1485   1.380       .  A
C1471      C1474   1.387       .  A
C1472      C1475   1.378       .  A
C1473      C1479   1.389       .  A
C1474      C1482   1.377       .  A
C1475      N1476   1.367       .  A
C1475      H1488   1.077       .  S
N1476      C1477   1.362       .  A
N1476      C1586   1.461       .  S
C1477      H1478   1.081       .  S
C1479      N1480   1.362       .  A
C1479      H1489   1.081       .  S
N1480      C1481   1.369       .  A
C1481      H1487   1.081       .  S
C1482      N1483   1.365       .  A
C1482      H1484   1.077       .  S
N1483      C1485   1.363       .  A
N1483      C1572   1.460       .  S
C1485      H1486   1.082       .  S
C1490      C1492   1.542       .  S
C1490      C1494   1.543       .  S
C1490      C1493   1.555       .  S
C1491      C1495   1.525       .  S
C1491      C1497   1.528       .  S
C1491      C1496   1.554       .  S
C1492      C1500   1.384       .  A
C1492      C1495   1.391       .  A
C1493      C1504   1.388       .  A
C1493      C1496   1.395       .  A
C1494      C1508   1.384       .  A
C1494      C1497   1.392       .  A
C1495      C1498   1.363       .  A
C1496      C1502   1.392       .  A
C1497      C1505   1.365       .  A
C1498      N1499   1.346       .  A
C1498      H1511   1.076       .  S
N1499      C1500   1.358       .  A
N1499      C1597   1.433       .  S
C1500      H1501   1.082       .  S
C1502      N1503   1.370       .  A
C1502      H1512   1.081       .  S
N1503      C1504   1.361       .  A
C1504      H1510   1.081       .  S
C1505      N1506   1.347       .  A
C1505      H1507   1.077       .  S
N1506      C1508   1.358       .  A
N1506      C1611   1.434       .  S
C1508      H1509   1.082       .  S
C1513      C1514   1.416       .  A
C1514      C1515   1.408       .  A
C1514      C1519   1.439       .  S
C1515      C1516   1.413       .  A
C1515      C1522   1.454       .  S
C1517      C2444   1.425       .  A
C1517      C1518   1.421       .  A
C1517      C1520   1.450   1_565  S
C1518      C2441   1.416       .  A
C1518      C1521   1.450       .  S
C1519      N1526   1.154       .  T
C1520      N1525   1.157       .  T
C1521      N1523   1.157       .  T
C1522      N1524   1.157       .  T
C1527      C1528   1.415       .  A
C1528      C1529   1.407       .  A
C1528      C1533   1.440       .  S
C1529      C1530   1.413       .  A
C1529      C1536   1.454       .  S
C1531      C2458   1.424       .  A
C1531      C1532   1.419       .  A
C1531      C1534   1.449       .  S
C1532      C2455   1.416       .  A
C1532      C1535   1.451       .  S
C1533      N1540   1.154       .  T
C1534      N1539   1.157   1_565  T
C1535      N1537   1.157       .  T
C1536      N1538   1.157       .  T
C1541      C1542   1.421       .  A
C1542      C1543   1.404       .  A
C1542      C1547   1.451       .  S
C1543      C1544   1.402       .  A
C1543      C1550   1.449       .  S
C1545      C2472   1.410       .  A
C1545      C1546   1.409       .  A
C1545      C1548   1.443       .  S
C1546      C2469   1.409       .  A
C1546      C1549   1.450       .  S
C1548      N1553   1.156       .  T
C1549      N1551   1.157       .  T
C1550      N1552   1.156       .  T
C1555      C1556   1.409       .  A
C1556      C1557   1.409       .  A
C1556      C1561   1.449       .  S
C1557      C1558   1.410       .  A
C1557      C1564   1.444       .  S
C1559      C2486   1.400       .  A
C1559      C1560   1.403       .  A
C1559      C1562   1.448       .  S
C1560      C2483   1.421       .  A
C1560      C1563   1.450       .  S
C1561      N1568   1.157       .  T
C1562      N1567   1.156       .  T
C1564      N1566   1.156       .  T
C1569      C1570   1.411       .  A
C1569      C1574   1.425       .  A
C1570      C1571   1.406       .  A
C1570      C1575   1.454       .  S
C1571      C1572   1.414       .  A
C1571      C1578   1.436       .  S
C1572      C1573   1.414       .  A
C1573      C1574   1.420       .  A
C1573      C1576   1.450       .  S
C1574      C1577   1.450       .  S
C1575      N1582   1.157       .  T
C1576      N1581   1.157       .  T
C1577      N1579   1.157       .  T
C1578      N1580   1.153       .  T
C1583      C1584   1.424       .  A
C1583      C1588   1.414       .  A
C1584      C1585   1.419       .  A
C1584      C1589   1.450       .  S
C1585      C1586   1.417       .  A
C1585      C1592   1.450       .  S
C1586      C1587   1.416       .  A
C1587      C1588   1.408       .  A
C1587      C1590   1.438       .  S
C1588      C1591   1.454       .  S
C1589      N1596   1.157       .  T
C1590      N1595   1.154       .  T
C1591      N1593   1.157       .  T
C1592      N1594   1.157       .  T
C1597      C1598   1.401       .  A
C1597      C1602   1.410       .  A
C1598      C1599   1.404       .  A
C1598      C1603   1.449       .  S
C1599      C1600   1.422       .  A
C1599      C1606   1.451       .  S
C1600      C1601   1.409       .  A
C1601      C1602   1.408       .  A
C1601      C1604   1.449       .  S
C1602      C1605   1.445       .  S
C1603      N1610   1.156       .  T
C1604      N1609   1.157       .  T
C1605      N1607   1.156       .  T
C1606      N1608   1.157       .  T
C1611      C1612   1.410       .  A
C1611      C1616   1.401       .  A
C1612      C1613   1.409       .  A
C1612      C1617   1.445       .  S
C1613      C1614   1.409       .  A
C1613      C1620   1.449       .  S
C1614      C1615   1.421       .  A
C1615      C1616   1.405       .  A
C1615      C1618   1.451       .  S
C1616      C1619   1.449       .  S
C1617      N1624   1.156       .  T
C1618      N1623   1.157       .  T
C1619      N1621   1.156       .  T
C1620      N1622   1.157       .  T
O1625      V1633   1.885       .  S
O1625      C1635   1.261       .  A
O1626      C1636   1.265       .  A
O1627      V1633   1.885       .  S
O1627      C1637   1.263       .  A
O1628      C1638   1.259       .  A
O1629      V1634   1.901   1_556  S
O1629      C1638   1.266       .  A
O1630      C1637   1.267       .  A
O1631      V1634   1.908   1_556  S
O1631      C1636   1.266       .  A
O1632      C1635   1.265       .  A
C1635      C1846   1.481       .  S
C1636      C1801   1.502       .  S
C1637      C1815   1.503       .  S
C1638      C1832   1.480       .  S
O1639      C2577   1.267       .  A
O1640      C2578   1.266       .  A
O1641      V1647   1.899   1_556  S
O1641      C2579   1.265       .  A
O1642      C2580   1.266       .  A
O1643      C1652   1.264       .  A
O1644      C1651   1.260       .  A
O1645      V1648   1.882       .  S
O1645      C1650   1.260       .  A
O1646      C1649   1.264       .  A
V1647      V2344   2.084   1_554  T
C1649      C1748   1.505       .  S
C1650      C1787   1.479       .  S
C1651      C1773   1.480       .  S
C1652      C1762   1.503       .  S
C1653      C1655   1.542       .  S
C1653      C1657   1.545       .  S
C1653      C1656   1.556       .  S
C1653      C1723   1.559       .  S
C1654      C1658   1.527       .  S
C1654      C1660   1.527       .  S
C1654      C1659   1.554       .  S
C1654      C1722   1.559       .  S
C1655      C1663   1.384       .  A
C1655      C2586   1.391       .  A
C1656      C1667   1.388       .  A
C1656      C2587   1.395       .  A
C1657      C1671   1.386       .  A
C1657      C2588   1.392       .  A
C1658      C1661   1.364       .  A
C1659      C1665   1.392       .  A
C1660      C1668   1.365       .  A
C1661      N1662   1.347       .  A
C1661      H1674   1.076       .  S
N1662      C1790   1.433       .  S
C1663      N2590   1.357       .  A
C1663      H1664   1.082       .  S
C1665      N1666   1.370       .  A
C1665      H1675   1.081       .  S
N1666      N1689   1.428       .  S
C1667      N2594   1.362       .  A
C1667      H1673   1.081       .  S
C1668      N1669   1.347       .  A
C1668      H1670   1.077       .  S
N1669      C1776   1.435       .  S
C1671      N2597   1.359       .  A
C1671      H1672   1.082       .  S
C1676      C1678   1.537       .  S
C1676      C1680   1.537       .  S
C1676      C1679   1.557       .  S
C1676      C1699   1.561       .  S
C1677      C1681   1.544       .  S
C1677      C1683   1.546       .  S
C1677      C1682   1.552       .  S
C1677      C1700   1.562       .  S
C1678      C1686   1.376       .  A
C1679      C1690   1.389       .  A
C1680      C1694   1.375       .  A
C1681      C2606   1.387       .  A
C1681      C1684   1.378       .  A
C1682      C2607   1.394       .  A
C1682      C1688   1.392       .  A
C1683      C2608   1.386       .  A
C1683      C1691   1.381       .  A
C1684      N2613   1.363       .  A
C1684      H1697   1.081       .  S
N1685      C1686   1.365       .  A
N1685      C1759   1.459       .  S
C1686      H1687   1.077       .  S
C1688      N2617   1.369       .  A
C1688      H1698   1.081       .  S
N1689      C1690   1.362       .  A
C1690      H1696   1.081       .  S
C1691      N2620   1.365       .  A
C1691      H1693   1.081       .  S
N1692      C1694   1.365       .  A
N1692      C1745   1.463       .  S
C1694      H1695   1.076       .  S
C1699      C1701   1.543       .  S
C1699      C1703   1.544       .  S
C1699      C1702   1.552       .  S
C1700      C1704   1.540       .  S
C1700      C1706   1.538       .  S
C1700      C1705   1.556       .  S
C1701      C1709   1.378       .  A
C1701      C1704   1.387       .  A
C1702      C1713   1.391       .  A
C1702      C1705   1.394       .  A
C1703      C1717   1.380       .  A
C1703      C1706   1.387       .  A
C1704      C1707   1.378       .  A
C1705      C1711   1.389       .  A
C1706      C1714   1.376       .  A
C1707      N1708   1.367       .  A
C1707      H1720   1.077       .  S
N1708      C1709   1.362       .  A
N1708      C1818   1.461       .  S
C1709      H1710   1.081       .  S
C1711      N1712   1.362       .  A
C1711      H1721   1.081       .  S
N1712      C1713   1.369       .  A
C1713      H1719   1.081       .  S
C1714      N1715   1.365       .  A
C1714      H1716   1.077       .  S
N1715      C1717   1.363       .  A
N1715      C1804   1.460       .  S
C1717      H1718   1.082       .  S
C1722      C1724   1.542       .  S
C1722      C1726   1.543       .  S
C1722      C1725   1.555       .  S
C1723      C1727   1.525       .  S
C1723      C1729   1.528       .  S
C1723      C1728   1.554       .  S
C1724      C1732   1.384       .  A
C1724      C1727   1.391       .  A
C1725      C1736   1.388       .  A
C1725      C1728   1.395       .  A
C1726      C1740   1.384       .  A
C1726      C1729   1.392       .  A
C1727      C1730   1.363       .  A
C1728      C1734   1.392       .  A
C1729      C1737   1.365       .  A
C1730      N1731   1.346       .  A
C1730      H1743   1.076       .  S
N1731      C1732   1.358       .  A
N1731      C1829   1.433       .  S
C1732      H1733   1.082       .  S
C1734      N1735   1.370       .  A
C1734      H1744   1.081       .  S
N1735      C1736   1.361       .  A
C1736      H1742   1.081       .  S
C1737      N1738   1.347       .  A
C1737      H1739   1.077       .  S
N1738      C1740   1.358       .  A
N1738      C1843   1.434       .  S
C1740      H1741   1.082       .  S
C1745      C1746   1.416       .  A
C1746      C1747   1.408       .  A
C1746      C1751   1.439       .  S
C1747      C1748   1.413       .  A
C1747      C1754   1.454       .  S
C1749      C2676   1.425       .  A
C1749      C1750   1.421       .  A
C1749      C1752   1.450   1_565  S
C1750      C2673   1.416       .  A
C1750      C1753   1.450       .  S
C1751      N1758   1.154       .  T
C1752      N1757   1.157       .  T
C1753      N1755   1.157       .  T
C1754      N1756   1.157       .  T
C1759      C1760   1.415       .  A
C1760      C1761   1.408       .  A
C1760      C1765   1.440       .  S
C1761      C1762   1.413       .  A
C1761      C1768   1.454       .  S
C1763      C2690   1.424       .  A
C1763      C1764   1.419       .  A
C1763      C1766   1.449       .  S
C1764      C2687   1.416       .  A
C1764      C1767   1.451       .  S
C1765      N1772   1.154       .  T
C1766      N1771   1.157   1_565  T
C1767      N1769   1.157       .  T
C1768      N1770   1.157       .  T
C1773      C1774   1.421       .  A
C1774      C1775   1.404       .  A
C1774      C1779   1.451       .  S
C1775      C1776   1.402       .  A
C1775      C1782   1.449       .  S
C1777      C2704   1.410       .  A
C1777      C1778   1.409       .  A
C1777      C1780   1.443       .  S
C1778      C2701   1.409       .  A
C1778      C1781   1.450       .  S
C1780      N1785   1.156       .  T
C1781      N1783   1.157       .  T
C1782      N1784   1.156       .  T
C1787      C1788   1.409       .  A
C1788      C1789   1.409       .  A
C1788      C1793   1.449       .  S
C1789      C1790   1.410       .  A
C1789      C1796   1.444       .  S
C1791      C2718   1.400       .  A
C1791      C1792   1.403       .  A
C1791      C1794   1.448       .  S
C1792      C2715   1.421       .  A
C1792      C1795   1.450       .  S
C1793      N1800   1.157       .  T
C1794      N1799   1.156       .  T
C1796      N1798   1.156       .  T
C1801      C1802   1.411       .  A
C1801      C1806   1.425       .  A
C1802      C1803   1.406       .  A
C1802      C1807   1.454       .  S
C1803      C1804   1.414       .  A
C1803      C1810   1.436       .  S
C1804      C1805   1.414       .  A
C1805      C1806   1.420       .  A
C1805      C1808   1.450       .  S
C1806      C1809   1.450       .  S
C1807      N1814   1.157       .  T
C1808      N1813   1.157       .  T
C1809      N1811   1.157       .  T
C1810      N1812   1.153       .  T
C1815      C1816   1.424       .  A
C1815      C1820   1.414       .  A
C1816      C1817   1.419       .  A
C1816      C1821   1.450       .  S
C1817      C1818   1.417       .  A
C1817      C1824   1.450       .  S
C1818      C1819   1.416       .  A
C1819      C1820   1.408       .  A
C1819      C1822   1.438       .  S
C1820      C1823   1.454       .  S
C1821      N1828   1.157       .  T
C1822      N1827   1.154       .  T
C1823      N1825   1.157       .  T
C1824      N1826   1.157       .  T
C1829      C1830   1.401       .  A
C1829      C1834   1.410       .  A
C1830      C1831   1.404       .  A
C1830      C1835   1.449       .  S
C1831      C1832   1.422       .  A
C1831      C1838   1.451       .  S
C1832      C1833   1.409       .  A
C1833      C1834   1.408       .  A
C1833      C1836   1.449       .  S
C1834      C1837   1.445       .  S
C1835      N1842   1.156       .  T
C1836      N1841   1.157       .  T
C1837      N1839   1.156       .  T
C1838      N1840   1.157       .  T
C1843      C1844   1.410       .  A
C1843      C1848   1.401       .  A
C1844      C1845   1.409       .  A
C1844      C1849   1.445       .  S
C1845      C1846   1.409       .  A
C1845      C1852   1.449       .  S
C1846      C1847   1.421       .  A
C1847      C1848   1.405       .  A
C1847      C1850   1.451       .  S
C1848      C1851   1.449       .  S
C1849      N1856   1.156       .  T
C1850      N1855   1.157       .  T
C1851      N1853   1.156       .  T
C1852      N1854   1.157       .  T
O1857      V1865   1.885   1_554  S
O1857      C1867   1.261       .  A
O1858      V2097   1.889       .  S
O1858      C1868   1.265       .  A
O1859      V1865   1.886   1_554  S
O1859      C1869   1.263       .  A
O1860      V2097   1.881       .  S
O1860      C1870   1.259       .  A
O1861      V1866   1.901       .  S
O1861      C1870   1.266       .  A
O1862      V2098   1.909       .  S
O1862      C1869   1.267       .  A
O1863      V1866   1.908       .  S
O1863      C1868   1.266       .  A
O1864      V2098   1.900       .  S
O1864      C1867   1.265       .  A
V1865      O2090   1.890       .  S
V1865      O2092   1.881       .  S
V1865      V2098   2.084   1_556  T
V1866      O2094   1.909       .  S
V1866      O2096   1.900       .  S
V1866      V2097   2.084       .  T
C1867      C2078   1.481       .  S
C1868      C2033   1.502       .  S
C1869      C2047   1.503       .  S
C1870      C2064   1.480       .  S
O1871      V2343   1.910       .  S
O1871      C2809   1.267       .  A
O1872      V2111   1.901       .  S
O1872      C2810   1.266       .  A
O1873      V1879   1.899       .  S
O1873      C2811   1.265       .  A
O1874      V2575   1.908       .  S
O1874      C2812   1.266       .  A
O1875      V2344   1.886   1_554  S
O1875      C1884   1.264       .  A
O1876      V2112   1.881   1_545  S
O1876      C1883   1.260       .  A
O1877      V1880   1.882   1_544  S
O1877      C1882   1.260       .  A
O1878      V2576   1.887       .  S
O1878      C1881   1.264       .  A
V1879      O2335   1.910   1_545  S
V1879      O2104   1.901       .  S
V1879      O2570   1.908   1_545  S
V1879      V3040   2.084   1_545  T
V1880      O2339   1.886   1_556  S
V1880      O2108   1.881   1_565  S
V1880      O2574   1.887       .  S
C1881      C1980   1.505       .  S
C1882      C2019   1.479       .  S
C1883      C2005   1.480       .  S
C1884      C1994   1.503       .  S
C1885      C1887   1.542       .  S
C1885      C1889   1.545       .  S
C1885      C1888   1.556       .  S
C1885      C1955   1.559       .  S
C1886      C1890   1.527       .  S
C1886      C1892   1.527       .  S
C1886      C1891   1.554       .  S
C1886      C1954   1.559       .  S
C1887      C1895   1.384       .  A
C1887      C2818   1.391       .  A
C1888      C1899   1.388       .  A
C1888      C2819   1.395       .  A
C1889      C1903   1.386       .  A
C1889      C2820   1.392       .  A
C1890      C1893   1.364       .  A
C1891      C1897   1.392       .  A
C1892      C1900   1.365       .  A
C1893      N1894   1.347       .  A
C1893      H1906   1.076       .  S
N1894      C2022   1.433       .  S
C1895      N2822   1.357       .  A
C1895      H1896   1.082       .  S
C1897      N1898   1.370       .  A
C1897      H1907   1.081       .  S
N1898      N1921   1.428       .  S
C1899      N2826   1.362       .  A
C1899      H1905   1.081       .  S
C1900      N1901   1.347       .  A
C1900      H1902   1.077       .  S
N1901      C2008   1.435       .  S
C1903      N2829   1.359       .  A
C1903      H1904   1.082       .  S
C1908      C1910   1.537       .  S
C1908      C1912   1.537       .  S
C1908      C1911   1.557       .  S
C1908      C1931   1.561       .  S
C1909      C1913   1.544       .  S
C1909      C1915   1.546       .  S
C1909      C1914   1.552       .  S
C1909      C1932   1.562       .  S
C1910      C1918   1.376       .  A
C1911      C1922   1.389       .  A
C1912      C1926   1.375       .  A
C1913      C2838   1.387       .  A
C1913      C1916   1.378       .  A
C1914      C2839   1.394       .  A
C1914      C1920   1.392       .  A
C1915      C2840   1.386       .  A
C1915      C1923   1.381       .  A
C1916      N2845   1.363       .  A
C1916      H1929   1.081       .  S
N1917      C1918   1.365       .  A
N1917      C1991   1.459       .  S
C1918      H1919   1.077       .  S
C1920      N2849   1.369       .  A
C1920      H1930   1.081       .  S
N1921      C1922   1.362       .  A
C1922      H1928   1.081       .  S
C1923      N2852   1.365       .  A
C1923      H1925   1.081       .  S
N1924      C1926   1.365       .  A
N1924      C1977   1.463       .  S
C1926      H1927   1.076       .  S
C1931      C1933   1.542       .  S
C1931      C1935   1.544       .  S
C1931      C1934   1.552       .  S
C1932      C1936   1.540       .  S
C1932      C1938   1.538       .  S
C1932      C1937   1.556       .  S
C1933      C1941   1.378       .  A
C1933      C1936   1.387       .  A
C1934      C1945   1.391       .  A
C1934      C1937   1.394       .  A
C1935      C1949   1.380       .  A
C1935      C1938   1.387       .  A
C1936      C1939   1.378       .  A
C1937      C1943   1.389       .  A
C1938      C1946   1.377       .  A
C1939      N1940   1.367       .  A
C1939      H1952   1.077       .  S
N1940      C1941   1.362       .  A
N1940      C2050   1.461       .  S
C1941      H1942   1.081       .  S
C1943      N1944   1.362       .  A
C1943      H1953   1.081       .  S
N1944      C1945   1.369       .  A
N1944      N2431   1.427       .  S
C1945      H1951   1.081       .  S
C1946      N1947   1.365       .  A
C1946      H1948   1.077       .  S
N1947      C1949   1.363       .  A
N1947      C2036   1.460       .  S
C1949      H1950   1.082       .  S
C1954      C1956   1.542       .  S
C1954      C1958   1.543       .  S
C1954      C1957   1.555       .  S
C1955      C1959   1.525       .  S
C1955      C1961   1.528       .  S
C1955      C1960   1.554       .  S
C1956      C1964   1.384       .  A
C1956      C1959   1.391       .  A
C1957      C1968   1.388       .  A
C1957      C1960   1.395       .  A
C1958      C1972   1.384       .  A
C1958      C1961   1.392       .  A
C1959      C1962   1.363       .  A
C1960      C1966   1.392       .  A
C1961      C1969   1.365       .  A
C1962      N1963   1.346       .  A
C1962      H1975   1.076       .  S
N1963      C1964   1.358       .  A
N1963      C2061   1.433       .  S
C1964      H1965   1.082       .  S
C1966      N1967   1.370       .  A
C1966      H1976   1.081       .  S
N1967      C1968   1.361       .  A
N1967      N2408   1.427   1_545  S
C1968      H1974   1.081       .  S
C1969      N1970   1.347       .  A
C1969      H1971   1.077       .  S
N1970      C1972   1.358       .  A
N1970      C2075   1.434       .  S
C1972      H1973   1.082       .  S
C1977      C1978   1.416       .  A
C1978      C1979   1.408       .  A
C1978      C1983   1.439       .  S
C1979      C1980   1.413       .  A
C1979      C1986   1.454       .  S
C1981      C2908   1.425       .  A
C1981      C1982   1.421       .  A
C1981      C1984   1.450       .  S
C1982      C2905   1.416       .  A
C1982      C1985   1.450       .  S
C1983      N1990   1.154       .  T
C1984      N1989   1.157       .  T
C1985      N1987   1.157       .  T
C1986      N1988   1.157       .  T
C1991      C1992   1.415       .  A
C1992      C1993   1.407       .  A
C1992      C1997   1.440       .  S
C1993      C1994   1.413       .  A
C1993      C2000   1.454       .  S
C1995      C2922   1.424       .  A
C1995      C1996   1.419       .  A
C1995      C1998   1.449       .  S
C1996      C2919   1.416       .  A
C1996      C1999   1.451       .  S
C1997      N2004   1.154       .  T
C1998      N2003   1.157       .  T
C1999      N2001   1.157       .  T
C2000      N2002   1.157       .  T
C2005      C2006   1.421       .  A
C2006      C2007   1.404       .  A
C2006      C2011   1.451       .  S
C2007      C2008   1.402       .  A
C2007      C2014   1.449       .  S
C2009      C2936   1.410       .  A
C2009      C2010   1.409       .  A
C2009      C2012   1.443       .  S
C2010      C2933   1.409       .  A
C2010      C2013   1.450       .  S
C2011      N2482   1.157   1_545  T
C2012      N2017   1.156       .  T
C2013      N2015   1.157       .  T
C2014      N2016   1.156   1_545  T
N2018      C2475   1.157       .  T
C2019      C2020   1.409       .  A
C2020      C2021   1.409       .  A
C2020      C2025   1.449       .  S
C2021      C2022   1.410       .  A
C2021      C2028   1.444       .  S
C2023      C2950   1.400       .  A
C2023      C2024   1.403       .  A
C2023      C2026   1.448       .  S
C2024      C2947   1.421       .  A
C2024      C2027   1.450       .  S
C2025      N2032   1.157       .  T
C2026      N2031   1.156   1_545  T
C2027      N2493   1.157   1_545  T
C2028      N2030   1.156       .  T
N2029      C2491   1.157       .  T
C2033      C2034   1.411       .  A
C2033      C2038   1.425       .  A
C2034      C2035   1.406       .  A
C2034      C2039   1.454       .  S
C2035      C2036   1.414       .  A
C2035      C2042   1.436       .  S
C2036      C2037   1.414       .  A
C2037      C2038   1.420       .  A
C2037      C2040   1.450       .  S
C2038      C2041   1.450       .  S
C2039      N2046   1.157       .  T
C2040      N2045   1.157       .  T
C2041      N2043   1.157       .  T
C2042      N2044   1.153       .  T
C2047      C2048   1.424       .  A
C2047      C2052   1.414       .  A
C2048      C2049   1.419       .  A
C2048      C2053   1.450       .  S
C2049      C2050   1.417       .  A
C2049      C2056   1.450       .  S
C2050      C2051   1.416       .  A
C2051      C2052   1.408       .  A
C2051      C2054   1.438       .  S
C2052      C2055   1.454       .  S
C2053      N2060   1.157       .  T
C2054      N2059   1.154       .  T
C2055      N2057   1.157       .  T
C2056      N2058   1.157       .  T
C2061      C2062   1.401       .  A
C2061      C2066   1.410       .  A
C2062      C2063   1.404       .  A
C2062      C2067   1.449       .  S
C2063      C2064   1.422       .  A
C2063      C2070   1.451       .  S
C2064      C2065   1.409       .  A
C2065      C2066   1.408       .  A
C2065      C2068   1.449       .  S
C2066      C2069   1.445       .  S
C2067      N2074   1.156       .  T
C2068      N2073   1.157       .  T
C2069      N2071   1.156       .  T
C2070      N2072   1.157       .  T
C2075      C2076   1.410       .  A
C2075      C2080   1.401       .  A
C2076      C2077   1.409       .  A
C2076      C2081   1.445       .  S
C2077      C2078   1.409       .  A
C2077      C2084   1.449       .  S
C2078      C2079   1.421       .  A
C2079      C2080   1.405       .  A
C2079      C2082   1.451       .  S
C2080      C2083   1.449       .  S
C2081      N2088   1.156       .  T
C2082      N2087   1.157       .  T
C2083      N2085   1.156       .  T
C2084      N2086   1.157       .  T
O2089      V2097   1.885       .  S
O2089      C2099   1.261       .  A
O2090      C2100   1.265       .  A
O2091      V2097   1.885       .  S
O2091      C2101   1.263       .  A
O2092      C2102   1.259       .  A
O2093      V2098   1.901   1_556  S
O2093      C2102   1.266       .  A
O2094      C2101   1.267       .  A
O2095      V2098   1.908   1_556  S
O2095      C2100   1.266       .  A
O2096      C2099   1.265       .  A
C2099      C2310   1.481       .  S
C2100      C2265   1.502       .  S
C2101      C2279   1.503       .  S
C2102      C2296   1.480       .  S
O2103      V2575   1.910   1_556  S
O2103      C3041   1.267       .  A
O2104      C3042   1.266       .  A
O2105      V2111   1.899   1_556  S
O2105      C3043   1.265       .  A
O2106      V2343   1.908       .  S
O2106      C3044   1.266       .  A
O2107      V2576   1.886       .  S
O2107      C2116   1.264       .  A
O2108      C2115   1.260       .  A
O2109      V2112   1.882   1_545  S
O2109      C2114   1.260       .  A
O2110      V2344   1.887       .  S
O2110      C2113   1.264       .  A
V2111      O2567   1.910   1_544  S
V2111      O2338   1.908   1_545  S
V2111      V2808   2.084   1_544  T
V2112      O2571   1.886       .  S
V2112      O2342   1.887       .  S
C2113      C2212   1.505       .  S
C2114      C2251   1.479       .  S
C2115      C2237   1.480       .  S
C2116      C2226   1.503       .  S
C2117      C2119   1.542       .  S
C2117      C2121   1.545       .  S
C2117      C2120   1.556       .  S
C2117      C2187   1.559       .  S
C2118      C2122   1.527       .  S
C2118      C2124   1.527       .  S
C2118      C2123   1.554       .  S
C2118      C2186   1.559       .  S
C2119      C2127   1.384       .  A
C2119      C3050   1.391       .  A
C2120      C2131   1.388       .  A
C2120      C3051   1.395       .  A
C2121      C2135   1.386       .  A
C2121      C3052   1.392       .  A
C2122      C2125   1.364       .  A
C2123      C2129   1.392       .  A
C2124      C2132   1.365       .  A
C2125      N2126   1.347       .  A
C2125      H2138   1.076       .  S
N2126      C2254   1.433       .  S
C2127      N3054   1.357       .  A
C2127      H2128   1.082       .  S
C2129      N2130   1.370       .  A
C2129      H2139   1.081       .  S
N2130      N2153   1.428       .  S
C2131      N3058   1.362       .  A
C2131      H2137   1.081       .  S
C2132      N2133   1.347       .  A
C2132      H2134   1.077       .  S
N2133      C2240   1.435       .  S
C2135      N3061   1.359       .  A
C2135      H2136   1.082       .  S
C2140      C2142   1.537       .  S
C2140      C2144   1.537       .  S
C2140      C2143   1.557       .  S
C2140      C2163   1.561       .  S
C2141      C2145   1.544       .  S
C2141      C2147   1.546       .  S
C2141      C2146   1.552       .  S
C2141      C2164   1.562       .  S
C2142      C2150   1.376       .  A
C2143      C2154   1.389       .  A
C2144      C2158   1.375       .  A
C2145      C3070   1.387       .  A
C2145      C2148   1.378       .  A
C2146      C3071   1.394       .  A
C2146      C2152   1.392       .  A
C2147      C3072   1.386       .  A
C2147      C2155   1.381       .  A
C2148      N3077   1.363       .  A
C2148      H2161   1.081       .  S
N2149      C2150   1.365       .  A
N2149      C2223   1.459       .  S
C2150      H2151   1.077       .  S
C2152      N3081   1.369       .  A
C2152      H2162   1.081       .  S
N2153      C2154   1.362       .  A
C2154      H2160   1.081       .  S
C2155      N3084   1.365       .  A
C2155      H2157   1.081       .  S
N2156      C2158   1.365       .  A
N2156      C2209   1.463       .  S
C2158      H2159   1.076       .  S
C2163      C2165   1.543       .  S
C2163      C2167   1.544       .  S
C2163      C2166   1.552       .  S
C2164      C2168   1.540       .  S
C2164      C2170   1.538       .  S
C2164      C2169   1.556       .  S
C2165      C2173   1.378       .  A
C2165      C2168   1.387       .  A
C2166      C2177   1.391       .  A
C2166      C2169   1.394       .  A
C2167      C2181   1.380       .  A
C2167      C2170   1.387       .  A
C2168      C2171   1.378       .  A
C2169      C2175   1.389       .  A
C2170      C2178   1.376       .  A
C2171      N2172   1.367       .  A
C2171      H2184   1.077       .  S
N2172      C2173   1.362       .  A
N2172      C2282   1.461       .  S
C2173      H2174   1.081       .  S
C2175      N2176   1.362       .  A
C2175      H2185   1.081       .  S
N2176      C2177   1.369       .  A
N2176      N2663   1.427       .  S
C2177      H2183   1.081       .  S
C2178      N2179   1.365       .  A
C2178      H2180   1.077       .  S
N2179      C2181   1.363       .  A
N2179      C2268   1.460       .  S
C2181      H2182   1.082       .  S
C2186      C2188   1.542       .  S
C2186      C2190   1.543       .  S
C2186      C2189   1.555       .  S
C2187      C2191   1.525       .  S
C2187      C2193   1.528       .  S
C2187      C2192   1.554       .  S
C2188      C2196   1.384       .  A
C2188      C2191   1.391       .  A
C2189      C2200   1.388       .  A
C2189      C2192   1.395       .  A
C2190      C2204   1.384       .  A
C2190      C2193   1.392       .  A
C2191      C2194   1.363       .  A
C2192      C2198   1.392       .  A
C2193      C2201   1.365       .  A
C2194      N2195   1.346       .  A
C2194      H2207   1.076       .  S
N2195      C2196   1.358       .  A
N2195      C2293   1.433       .  S
C2196      H2197   1.082       .  S
C2198      N2199   1.370       .  A
C2198      H2208   1.081       .  S
N2199      C2200   1.361       .  A
N2199      N2640   1.427   1_545  S
C2200      H2206   1.081       .  S
C2201      N2202   1.347       .  A
C2201      H2203   1.077       .  S
N2202      C2204   1.358       .  A
N2202      C2307   1.434       .  S
C2204      H2205   1.082       .  S
C2209      C2210   1.416       .  A
C2210      C2211   1.408       .  A
C2210      C2215   1.439       .  S
C2211      C2212   1.413       .  A
C2211      C2218   1.454       .  S
C2213      C3140   1.425       .  A
C2213      C2214   1.421       .  A
C2213      C2216   1.450       .  S
C2214      C3137   1.416       .  A
C2214      C2217   1.450       .  S
C2215      N2222   1.154       .  T
C2216      N2221   1.157       .  T
C2217      N2219   1.157       .  T
C2218      N2220   1.157       .  T
C2223      C2224   1.415       .  A
C2224      C2225   1.408       .  A
C2224      C2229   1.440       .  S
C2225      C2226   1.413       .  A
C2225      C2232   1.454       .  S
C2227      C3154   1.424       .  A
C2227      C2228   1.419       .  A
C2227      C2230   1.449       .  S
C2228      C3151   1.416       .  A
C2228      C2231   1.451       .  S
C2229      N2236   1.154       .  T
C2230      N2235   1.157       .  T
C2231      N2233   1.157       .  T
C2232      N2234   1.157       .  T
C2237      C2238   1.421       .  A
C2238      C2239   1.404       .  A
C2238      C2243   1.451       .  S
C2239      C2240   1.402       .  A
C2239      C2246   1.449       .  S
C2241      C3168   1.410       .  A
C2241      C2242   1.409       .  A
C2241      C2244   1.443       .  S
C2242      C3165   1.409       .  A
C2242      C2245   1.450       .  S
C2243      N2714   1.157   1_545  T
C2244      N2249   1.156       .  T
C2245      N2247   1.157       .  T
C2246      N2248   1.156   1_545  T
N2250      C2707   1.157       .  T
C2251      C2252   1.409       .  A
C2252      C2253   1.409       .  A
C2252      C2257   1.449       .  S
C2253      C2254   1.410       .  A
C2253      C2260   1.444       .  S
C2255      C3182   1.400       .  A
C2255      C2256   1.403       .  A
C2255      C2258   1.448       .  S
C2256      C3179   1.421       .  A
C2256      C2259   1.450       .  S
C2257      N2264   1.157       .  T
C2258      N2263   1.156   1_545  T
C2259      N2725   1.157   1_545  T
C2260      N2262   1.156       .  T
N2261      C2723   1.157       .  T
C2265      C2266   1.411       .  A
C2265      C2270   1.425       .  A
C2266      C2267   1.406       .  A
C2266      C2271   1.454       .  S
C2267      C2268   1.414       .  A
C2267      C2274   1.436       .  S
C2268      C2269   1.414       .  A
C2269      C2270   1.420       .  A
C2269      C2272   1.450       .  S
C2270      C2273   1.450       .  S
C2271      N2278   1.157       .  T
C2272      N2277   1.157       .  T
C2273      N2275   1.157       .  T
C2274      N2276   1.153       .  T
C2279      C2280   1.424       .  A
C2279      C2284   1.414       .  A
C2280      C2281   1.419       .  A
C2280      C2285   1.450       .  S
C2281      C2282   1.417       .  A
C2281      C2288   1.450       .  S
C2282      C2283   1.416       .  A
C2283      C2284   1.408       .  A
C2283      C2286   1.438       .  S
C2284      C2287   1.454       .  S
C2285      N2292   1.157       .  T
C2286      N2291   1.154       .  T
C2287      N2289   1.157       .  T
C2288      N2290   1.157       .  T
C2293      C2294   1.401       .  A
C2293      C2298   1.410       .  A
C2294      C2295   1.404       .  A
C2294      C2299   1.449       .  S
C2295      C2296   1.422       .  A
C2295      C2302   1.451       .  S
C2296      C2297   1.409       .  A
C2297      C2298   1.408       .  A
C2297      C2300   1.449       .  S
C2298      C2301   1.445       .  S
C2299      N2306   1.156       .  T
C2300      N2305   1.157       .  T
C2301      N2303   1.156       .  T
C2302      N2304   1.157       .  T
C2307      C2308   1.410       .  A
C2307      C2312   1.402       .  A
C2308      C2309   1.409       .  A
C2308      C2313   1.445       .  S
C2309      C2310   1.409       .  A
C2309      C2316   1.449       .  S
C2310      C2311   1.421       .  A
C2311      C2312   1.405       .  A
C2311      C2314   1.451       .  S
C2312      C2315   1.449       .  S
C2313      N2320   1.156       .  T
C2314      N2319   1.157       .  T
C2315      N2317   1.156       .  T
C2316      N2318   1.157       .  T
O2321      V2329   1.885   1_554  S
O2321      C2331   1.261       .  A
O2322      V2561   1.889       .  S
O2322      C2332   1.265       .  A
O2323      V2329   1.886   1_554  S
O2323      C2333   1.263       .  A
O2324      V2561   1.881       .  S
O2324      C2334   1.259       .  A
O2325      V2330   1.901       .  S
O2325      C2334   1.266       .  A
O2326      V2562   1.909       .  S
O2326      C2333   1.267       .  A
O2327      V2330   1.908       .  S
O2327      C2332   1.266       .  A
O2328      V2562   1.900       .  S
O2328      C2331   1.265       .  A
V2329      O2554   1.890       .  S
V2329      O2556   1.881       .  S
V2329      V2562   2.084   1_556  T
V2330      O2558   1.909       .  S
V2330      O2560   1.900       .  S
V2330      V2561   2.084       .  T
C2331      C2542   1.481       .  S
C2332      C2497   1.502       .  S
C2333      C2511   1.503       .  S
C2334      C2528   1.480       .  S
O2335      C3273   1.267       .  A
O2336      V2575   1.901       .  S
O2336      C3274   1.266       .  A
O2337      V2343   1.899       .  S
O2337      C3275   1.265       .  A
O2338      C3276   1.266       .  A
O2339      C2348   1.264       .  A
O2340      V2576   1.881       .  S
O2340      C2347   1.260       .  A
O2341      V2344   1.882   1_554  S
O2341      C2346   1.260       .  A
O2342      C2345   1.264       .  A
V2343      O2568   1.901       .  S
V2343      V3504   2.084       .  T
V2344      O2572   1.881       .  S
C2345      C2444   1.505       .  S
C2346      C2483   1.479       .  S
C2347      C2469   1.480       .  S
C2348      C2458   1.503       .  S
C2349      C2351   1.542       .  S
C2349      C2353   1.545       .  S
C2349      C2352   1.556       .  S
C2349      C2419   1.559       .  S
C2350      C2354   1.527       .  S
C2350      C2356   1.527       .  S
C2350      C2355   1.554       .  S
C2350      C2418   1.559       .  S
C2351      C2359   1.384       .  A
C2351      C3282   1.391       .  A
C2352      C2363   1.388       .  A
C2352      C3283   1.395       .  A
C2353      C2367   1.386       .  A
C2353      C3284   1.392       .  A
C2354      C2357   1.364       .  A
C2355      C2361   1.392       .  A
C2356      C2364   1.365       .  A
C2357      N2358   1.347       .  A
C2357      H2370   1.076       .  S
N2358      C2486   1.433       .  S
C2359      N3286   1.357       .  A
C2359      H2360   1.082       .  S
C2361      N2362   1.370       .  A
C2361      H2371   1.081       .  S
N2362      N2385   1.428       .  S
C2363      N3290   1.362       .  A
C2363      H2369   1.081       .  S
C2364      N2365   1.347       .  A
C2364      H2366   1.077       .  S
N2365      C2472   1.435       .  S
C2367      N3293   1.359       .  A
C2367      H2368   1.082       .  S
C2372      C2374   1.537       .  S
C2372      C2376   1.537       .  S
C2372      C2375   1.557       .  S
C2372      C2395   1.561       .  S
C2373      C2377   1.544       .  S
C2373      C2379   1.546       .  S
C2373      C2378   1.552       .  S
C2373      C2396   1.562       .  S
C2374      C2382   1.376       .  A
C2375      C2386   1.389       .  A
C2376      C2390   1.375       .  A
C2377      C3302   1.387       .  A
C2377      C2380   1.378       .  A
C2378      C3303   1.394       .  A
C2378      C2384   1.392       .  A
C2379      C3304   1.386       .  A
C2379      C2387   1.381       .  A
C2380      N3309   1.363       .  A
C2380      H2393   1.081       .  S
N2381      C2382   1.365       .  A
N2381      C2455   1.459       .  S
C2382      H2383   1.077       .  S
C2384      N3313   1.369       .  A
C2384      H2394   1.081       .  S
N2385      C2386   1.362       .  A
C2386      H2392   1.081       .  S
C2387      N3316   1.365       .  A
C2387      H2389   1.081       .  S
N2388      C2390   1.365       .  A
N2388      C2441   1.463       .  S
C2390      H2391   1.076       .  S
C2395      C2397   1.542       .  S
C2395      C2399   1.544       .  S
C2395      C2398   1.552       .  S
C2396      C2400   1.540       .  S
C2396      C2402   1.538       .  S
C2396      C2401   1.556       .  S
C2397      C2405   1.378       .  A
C2397      C2400   1.387       .  A
C2398      C2409   1.391       .  A
C2398      C2401   1.394       .  A
C2399      C2413   1.380       .  A
C2399      C2402   1.387       .  A
C2400      C2403   1.378       .  A
C2401      C2407   1.389       .  A
C2402      C2410   1.377       .  A
C2403      N2404   1.367       .  A
C2403      H2416   1.077       .  S
N2404      C2405   1.362       .  A
N2404      C2514   1.461       .  S
C2405      H2406   1.081       .  S
C2407      N2408   1.362       .  A
C2407      H2417   1.081       .  S
N2408      C2409   1.369       .  A
C2409      H2415   1.081       .  S
C2410      N2411   1.365       .  A
C2410      H2412   1.077       .  S
N2411      C2413   1.363       .  A
N2411      C2500   1.460       .  S
C2413      H2414   1.082       .  S
C2418      C2420   1.542       .  S
C2418      C2422   1.543       .  S
C2418      C2421   1.555       .  S
C2419      C2423   1.525       .  S
C2419      C2425   1.528       .  S
C2419      C2424   1.554       .  S
C2420      C2428   1.384       .  A
C2420      C2423   1.391       .  A
C2421      C2432   1.388       .  A
C2421      C2424   1.395       .  A
C2422      C2436   1.384       .  A
C2422      C2425   1.392       .  A
C2423      C2426   1.363       .  A
C2424      C2430   1.392       .  A
C2425      C2433   1.365       .  A
C2426      N2427   1.346       .  A
C2426      H2439   1.076       .  S
N2427      C2428   1.358       .  A
N2427      C2525   1.433       .  S
C2428      H2429   1.082       .  S
C2430      N2431   1.370       .  A
C2430      H2440   1.081       .  S
N2431      C2432   1.361       .  A
C2432      H2438   1.081       .  S
C2433      N2434   1.347       .  A
C2433      H2435   1.077       .  S
N2434      C2436   1.358       .  A
N2434      C2539   1.434       .  S
C2436      H2437   1.082       .  S
C2441      C2442   1.416       .  A
C2442      C2443   1.408       .  A
C2442      C2447   1.439       .  S
C2443      C2444   1.413       .  A
C2443      C2450   1.454       .  S
C2445      C3372   1.425       .  A
C2445      C2446   1.421       .  A
C2445      C2448   1.450   1_565  S
C2446      C3369   1.416       .  A
C2446      C2449   1.450       .  S
C2447      N2454   1.154       .  T
C2448      N2453   1.157       .  T
C2449      N2451   1.157       .  T
C2450      N2452   1.157       .  T
C2455      C2456   1.415       .  A
C2456      C2457   1.407       .  A
C2456      C2461   1.440       .  S
C2457      C2458   1.413       .  A
C2457      C2464   1.454       .  S
C2459      C3386   1.424       .  A
C2459      C2460   1.419       .  A
C2459      C2462   1.449       .  S
C2460      C3383   1.416       .  A
C2460      C2463   1.451       .  S
C2461      N2468   1.154       .  T
C2462      N2467   1.157   1_565  T
C2463      N2465   1.157       .  T
C2464      N2466   1.157       .  T
C2469      C2470   1.421       .  A
C2470      C2471   1.404       .  A
C2470      C2475   1.451       .  S
C2471      C2472   1.402       .  A
C2471      C2478   1.449       .  S
C2473      C3400   1.410       .  A
C2473      C2474   1.409       .  A
C2473      C2476   1.443       .  S
C2474      C3397   1.409       .  A
C2474      C2477   1.450       .  S
C2476      N2481   1.156       .  T
C2477      N2479   1.157       .  T
C2478      N2480   1.156       .  T
C2483      C2484   1.409       .  A
C2484      C2485   1.409       .  A
C2484      C2489   1.449       .  S
C2485      C2486   1.410       .  A
C2485      C2492   1.444       .  S
C2487      C3414   1.400       .  A
C2487      C2488   1.403       .  A
C2487      C2490   1.448       .  S
C2488      C3411   1.421       .  A
C2488      C2491   1.450       .  S
C2489      N2496   1.157       .  T
C2490      N2495   1.156       .  T
C2492      N2494   1.156       .  T
C2497      C2498   1.411       .  A
C2497      C2502   1.425       .  A
C2498      C2499   1.406       .  A
C2498      C2503   1.454       .  S
C2499      C2500   1.414       .  A
C2499      C2506   1.436       .  S
C2500      C2501   1.414       .  A
C2501      C2502   1.420       .  A
C2501      C2504   1.450       .  S
C2502      C2505   1.450       .  S
C2503      N2510   1.157       .  T
C2504      N2509   1.157       .  T
C2505      N2507   1.157       .  T
C2506      N2508   1.153       .  T
C2511      C2512   1.424       .  A
C2511      C2516   1.414       .  A
C2512      C2513   1.419       .  A
C2512      C2517   1.450       .  S
C2513      C2514   1.417       .  A
C2513      C2520   1.450       .  S
C2514      C2515   1.416       .  A
C2515      C2516   1.408       .  A
C2515      C2518   1.438       .  S
C2516      C2519   1.454       .  S
C2517      N2524   1.157       .  T
C2518      N2523   1.154       .  T
C2519      N2521   1.157       .  T
C2520      N2522   1.157       .  T
C2525      C2526   1.401       .  A
C2525      C2530   1.410       .  A
C2526      C2527   1.404       .  A
C2526      C2531   1.449       .  S
C2527      C2528   1.422       .  A
C2527      C2534   1.451       .  S
C2528      C2529   1.409       .  A
C2529      C2530   1.408       .  A
C2529      C2532   1.449       .  S
C2530      C2533   1.445       .  S
C2531      N2538   1.156       .  T
C2532      N2537   1.157       .  T
C2533      N2535   1.156       .  T
C2534      N2536   1.157       .  T
C2539      C2540   1.410       .  A
C2539      C2544   1.401       .  A
C2540      C2541   1.409       .  A
C2540      C2545   1.445       .  S
C2541      C2542   1.409       .  A
C2541      C2548   1.449       .  S
C2542      C2543   1.421       .  A
C2543      C2544   1.405       .  A
C2543      C2546   1.451       .  S
C2544      C2547   1.449       .  S
C2545      N2552   1.156       .  T
C2546      N2551   1.157       .  T
C2547      N2549   1.156       .  T
C2548      N2550   1.157       .  T
O2553      V2561   1.885       .  S
O2553      C2563   1.261       .  A
O2554      C2564   1.265       .  A
O2555      V2561   1.885       .  S
O2555      C2565   1.263       .  A
O2556      C2566   1.259       .  A
O2557      V2562   1.901   1_556  S
O2557      C2566   1.266       .  A
O2558      C2565   1.267       .  A
O2559      V2562   1.908   1_556  S
O2559      C2564   1.266       .  A
O2560      C2563   1.265       .  A
C2563      C2774   1.481       .  S
C2564      C2729   1.502       .  S
C2565      C2743   1.503       .  S
C2566      C2760   1.480       .  S
O2567      C3505   1.267       .  A
O2568      C3506   1.266       .  A
O2569      V2575   1.899   1_556  S
O2569      C3507   1.265       .  A
O2570      C3508   1.266       .  A
O2571      C2580   1.264       .  A
O2572      C2579   1.260       .  A
O2573      V2576   1.882       .  S
O2573      C2578   1.260       .  A
O2574      C2577   1.264       .  A
V2575      V3272   2.084   1_554  T
C2577      C2676   1.505       .  S
C2578      C2715   1.479       .  S
C2579      C2701   1.480       .  S
C2580      C2690   1.503       .  S
C2581      C2583   1.542       .  S
C2581      C2585   1.545       .  S
C2581      C2584   1.556       .  S
C2581      C2651   1.559       .  S
C2582      C2586   1.527       .  S
C2582      C2588   1.527       .  S
C2582      C2587   1.554       .  S
C2582      C2650   1.559       .  S
C2583      C2591   1.384       .  A
C2583      C3514   1.391       .  A
C2584      C2595   1.388       .  A
C2584      C3515   1.395       .  A
C2585      C2599   1.386       .  A
C2585      C3516   1.392       .  A
C2586      C2589   1.364       .  A
C2587      C2593   1.392       .  A
C2588      C2596   1.365       .  A
C2589      N2590   1.347       .  A
C2589      H2602   1.076       .  S
N2590      C2718   1.433       .  S
C2591      N3518   1.357       .  A
C2591      H2592   1.082       .  S
C2593      N2594   1.370       .  A
C2593      H2603   1.081       .  S
N2594      N2617   1.428       .  S
C2595      N3522   1.362       .  A
C2595      H2601   1.081       .  S
C2596      N2597   1.347       .  A
C2596      H2598   1.077       .  S
N2597      C2704   1.435       .  S
C2599      N3525   1.359       .  A
C2599      H2600   1.082       .  S
C2604      C2606   1.537       .  S
C2604      C2608   1.537       .  S
C2604      C2607   1.557       .  S
C2604      C2627   1.561       .  S
C2605      C2609   1.544       .  S
C2605      C2611   1.546       .  S
C2605      C2610   1.552       .  S
C2605      C2628   1.562       .  S
C2606      C2614   1.376       .  A
C2607      C2618   1.389       .  A
C2608      C2622   1.375       .  A
C2609      C3534   1.387       .  A
C2609      C2612   1.378       .  A
C2610      C3535   1.394       .  A
C2610      C2616   1.392       .  A
C2611      C3536   1.386       .  A
C2611      C2619   1.381       .  A
C2612      N3541   1.363       .  A
C2612      H2625   1.081       .  S
N2613      C2614   1.365       .  A
N2613      C2687   1.459       .  S
C2614      H2615   1.077       .  S
C2616      N3545   1.369       .  A
C2616      H2626   1.081       .  S
N2617      C2618   1.362       .  A
C2618      H2624   1.081       .  S
C2619      N3548   1.365       .  A
C2619      H2621   1.081       .  S
N2620      C2622   1.365       .  A
N2620      C2673   1.463       .  S
C2622      H2623   1.076       .  S
C2627      C2629   1.543       .  S
C2627      C2631   1.544       .  S
C2627      C2630   1.552       .  S
C2628      C2632   1.540       .  S
C2628      C2634   1.538       .  S
C2628      C2633   1.556       .  S
C2629      C2637   1.378       .  A
C2629      C2632   1.387       .  A
C2630      C2641   1.391       .  A
C2630      C2633   1.394       .  A
C2631      C2645   1.380       .  A
C2631      C2634   1.387       .  A
C2632      C2635   1.378       .  A
C2633      C2639   1.389       .  A
C2634      C2642   1.376       .  A
C2635      N2636   1.367       .  A
C2635      H2648   1.077       .  S
N2636      C2637   1.362       .  A
N2636      C2746   1.461       .  S
C2637      H2638   1.081       .  S
C2639      N2640   1.362       .  A
C2639      H2649   1.081       .  S
N2640      C2641   1.369       .  A
C2641      H2647   1.081       .  S
C2642      N2643   1.365       .  A
C2642      H2644   1.077       .  S
N2643      C2645   1.363       .  A
N2643      C2732   1.460       .  S
C2645      H2646   1.082       .  S
C2650      C2652   1.542       .  S
C2650      C2654   1.543       .  S
C2650      C2653   1.555       .  S
C2651      C2655   1.525       .  S
C2651      C2657   1.528       .  S
C2651      C2656   1.554       .  S
C2652      C2660   1.384       .  A
C2652      C2655   1.391       .  A
C2653      C2664   1.388       .  A
C2653      C2656   1.395       .  A
C2654      C2668   1.384       .  A
C2654      C2657   1.392       .  A
C2655      C2658   1.363       .  A
C2656      C2662   1.392       .  A
C2657      C2665   1.365       .  A
C2658      N2659   1.346       .  A
C2658      H2671   1.076       .  S
N2659      C2660   1.358       .  A
N2659      C2757   1.433       .  S
C2660      H2661   1.082       .  S
C2662      N2663   1.370       .  A
C2662      H2672   1.081       .  S
N2663      C2664   1.361       .  A
C2664      H2670   1.081       .  S
C2665      N2666   1.347       .  A
C2665      H2667   1.077       .  S
N2666      C2668   1.358       .  A
N2666      C2771   1.434       .  S
C2668      H2669   1.082       .  S
C2673      C2674   1.416       .  A
C2674      C2675   1.408       .  A
C2674      C2679   1.439       .  S
C2675      C2676   1.413       .  A
C2675      C2682   1.454       .  S
C2677      C3604   1.425       .  A
C2677      C2678   1.421       .  A
C2677      C2680   1.450   1_565  S
C2678      C3601   1.416       .  A
C2678      C2681   1.450       .  S
C2679      N2686   1.154       .  T
C2680      N2685   1.157       .  T
C2681      N2683   1.157       .  T
C2682      N2684   1.157       .  T
C2687      C2688   1.415       .  A
C2688      C2689   1.408       .  A
C2688      C2693   1.440       .  S
C2689      C2690   1.413       .  A
C2689      C2696   1.454       .  S
C2691      C3618   1.424       .  A
C2691      C2692   1.419       .  A
C2691      C2694   1.449       .  S
C2692      C3615   1.416       .  A
C2692      C2695   1.451       .  S
C2693      N2700   1.154       .  T
C2694      N2699   1.157   1_565  T
C2695      N2697   1.157       .  T
C2696      N2698   1.157       .  T
C2701      C2702   1.421       .  A
C2702      C2703   1.404       .  A
C2702      C2707   1.451       .  S
C2703      C2704   1.402       .  A
C2703      C2710   1.449       .  S
C2705      C3632   1.410       .  A
C2705      C2706   1.409       .  A
C2705      C2708   1.443       .  S
C2706      C3629   1.409       .  A
C2706      C2709   1.450       .  S
C2708      N2713   1.156       .  T
C2709      N2711   1.157       .  T
C2710      N2712   1.156       .  T
C2715      C2716   1.409       .  A
C2716      C2717   1.409       .  A
C2716      C2721   1.449       .  S
C2717      C2718   1.410       .  A
C2717      C2724   1.444       .  S
C2719      C3646   1.400       .  A
C2719      C2720   1.403       .  A
C2719      C2722   1.448       .  S
C2720      C3643   1.421       .  A
C2720      C2723   1.450       .  S
C2721      N2728   1.157       .  T
C2722      N2727   1.156       .  T
C2724      N2726   1.156       .  T
C2729      C2730   1.411       .  A
C2729      C2734   1.425       .  A
C2730      C2731   1.406       .  A
C2730      C2735   1.454       .  S
C2731      C2732   1.414       .  A
C2731      C2738   1.436       .  S
C2732      C2733   1.414       .  A
C2733      C2734   1.420       .  A
C2733      C2736   1.450       .  S
C2734      C2737   1.450       .  S
C2735      N2742   1.157       .  T
C2736      N2741   1.157       .  T
C2737      N2739   1.157       .  T
C2738      N2740   1.153       .  T
C2743      C2744   1.424       .  A
C2743      C2748   1.414       .  A
C2744      C2745   1.419       .  A
C2744      C2749   1.450       .  S
C2745      C2746   1.417       .  A
C2745      C2752   1.450       .  S
C2746      C2747   1.416       .  A
C2747      C2748   1.408       .  A
C2747      C2750   1.438       .  S
C2748      C2751   1.454       .  S
C2749      N2756   1.157       .  T
C2750      N2755   1.154       .  T
C2751      N2753   1.157       .  T
C2752      N2754   1.157       .  T
C2757      C2758   1.401       .  A
C2757      C2762   1.410       .  A
C2758      C2759   1.404       .  A
C2758      C2763   1.449       .  S
C2759      C2760   1.422       .  A
C2759      C2766   1.451       .  S
C2760      C2761   1.409       .  A
C2761      C2762   1.408       .  A
C2761      C2764   1.449       .  S
C2762      C2765   1.445       .  S
C2763      N2770   1.156       .  T
C2764      N2769   1.157       .  T
C2765      N2767   1.156       .  T
C2766      N2768   1.157       .  T
C2771      C2772   1.410       .  A
C2771      C2776   1.401       .  A
C2772      C2773   1.409       .  A
C2772      C2777   1.445       .  S
C2773      C2774   1.409       .  A
C2773      C2780   1.449       .  S
C2774      C2775   1.421       .  A
C2775      C2776   1.405       .  A
C2775      C2778   1.451       .  S
C2776      C2779   1.449       .  S
C2777      N2784   1.156       .  T
C2778      N2783   1.157       .  T
C2779      N2781   1.156       .  T
C2780      N2782   1.157       .  T
O2785      V2793   1.885   1_554  S
O2785      C2795   1.261       .  A
O2786      V3025   1.889       .  S
O2786      C2796   1.265       .  A
O2787      V2793   1.886   1_554  S
O2787      C2797   1.263       .  A
O2788      V3025   1.881       .  S
O2788      C2798   1.259       .  A
O2789      V2794   1.901       .  S
O2789      C2798   1.266       .  A
O2790      V3026   1.909       .  S
O2790      C2797   1.267       .  A
O2791      V2794   1.908       .  S
O2791      C2796   1.266       .  A
O2792      V3026   1.900       .  S
O2792      C2795   1.265       .  A
V2793      O3018   1.890       .  S
V2793      O3020   1.881       .  S
V2793      V3026   2.084   1_556  T
V2794      O3022   1.909       .  S
V2794      O3024   1.900       .  S
V2794      V3025   2.084       .  T
C2795      C3006   1.481       .  S
C2796      C2961   1.502       .  S
C2797      C2975   1.503       .  S
C2798      C2992   1.480       .  S
O2799      V3271   1.910       .  S
O2800      V3039   1.901       .  S
O2801      V2807   1.899       .  S
O2802      V3503   1.908       .  S
O2803      V3272   1.886   1_554  S
O2803      C2812   1.264       .  A
O2804      V3040   1.881   1_545  S
O2804      C2811   1.260       .  A
O2805      V2808   1.882   1_544  S
O2805      C2810   1.260       .  A
O2806      V3504   1.887       .  S
O2806      C2809   1.264       .  A
V2807      O3263   1.910   1_545  S
V2807      O3032   1.901       .  S
V2807      O3498   1.908   1_545  S
V2808      O3267   1.886   1_556  S
V2808      O3036   1.881   1_565  S
V2808      O3502   1.887       .  S
C2809      C2908   1.505       .  S
C2810      C2947   1.479       .  S
C2811      C2933   1.480       .  S
C2812      C2922   1.503       .  S
C2813      C2815   1.542       .  S
C2813      C2817   1.545       .  S
C2813      C2816   1.556       .  S
C2813      C2883   1.559       .  S
C2814      C2818   1.527       .  S
C2814      C2820   1.527       .  S
C2814      C2819   1.554       .  S
C2814      C2882   1.559       .  S
C2815      C2823   1.384       .  A
C2816      C2827   1.388       .  A
C2817      C2831   1.386       .  A
C2818      C2821   1.364       .  A
C2819      C2825   1.392       .  A
C2820      C2828   1.365       .  A
C2821      N2822   1.347       .  A
C2821      H2834   1.076       .  S
N2822      C2950   1.433       .  S
C2823      H2824   1.082       .  S
C2825      N2826   1.370       .  A
C2825      H2835   1.081       .  S
N2826      N2849   1.428       .  S
C2827      H2833   1.081       .  S
C2828      N2829   1.347       .  A
C2828      H2830   1.077       .  S
N2829      C2936   1.435       .  S
C2831      H2832   1.082       .  S
C2836      C2838   1.537       .  S
C2836      C2840   1.537       .  S
C2836      C2839   1.557       .  S
C2836      C2859   1.561       .  S
C2837      C2841   1.544       .  S
C2837      C2843   1.546       .  S
C2837      C2842   1.552       .  S
C2837      C2860   1.562       .  S
C2838      C2846   1.376       .  A
C2839      C2850   1.389       .  A
C2840      C2854   1.375       .  A
C2841      C2844   1.378       .  A
C2842      C2848   1.392       .  A
C2843      C2851   1.381       .  A
C2844      H2857   1.081       .  S
N2845      C2846   1.365       .  A
N2845      C2919   1.459       .  S
C2846      H2847   1.077       .  S
C2848      H2858   1.081       .  S
N2849      C2850   1.362       .  A
C2850      H2856   1.081       .  S
C2851      H2853   1.081       .  S
N2852      C2854   1.365       .  A
N2852      C2905   1.463       .  S
C2854      H2855   1.076       .  S
C2859      C2861   1.542       .  S
C2859      C2863   1.544       .  S
C2859      C2862   1.552       .  S
C2860      C2864   1.540       .  S
C2860      C2866   1.538       .  S
C2860      C2865   1.556       .  S
C2861      C2869   1.378       .  A
C2861      C2864   1.387       .  A
C2862      C2873   1.391       .  A
C2862      C2865   1.394       .  A
C2863      C2877   1.380       .  A
C2863      C2866   1.387       .  A
C2864      C2867   1.378       .  A
C2865      C2871   1.389       .  A
C2866      C2874   1.377       .  A
C2867      N2868   1.367       .  A
C2867      H2880   1.077       .  S
N2868      C2869   1.362       .  A
N2868      C2978   1.461       .  S
C2869      H2870   1.081       .  S
C2871      N2872   1.362       .  A
C2871      H2881   1.081       .  S
N2872      C2873   1.369       .  A
N2872      N3359   1.427       .  S
C2873      H2879   1.081       .  S
C2874      N2875   1.365       .  A
C2874      H2876   1.077       .  S
N2875      C2877   1.363       .  A
N2875      C2964   1.460       .  S
C2877      H2878   1.082       .  S
C2882      C2884   1.542       .  S
C2882      C2886   1.543       .  S
C2882      C2885   1.555       .  S
C2883      C2887   1.525       .  S
C2883      C2889   1.528       .  S
C2883      C2888   1.554       .  S
C2884      C2892   1.384       .  A
C2884      C2887   1.391       .  A
C2885      C2896   1.388       .  A
C2885      C2888   1.395       .  A
C2886      C2900   1.384       .  A
C2886      C2889   1.392       .  A
C2887      C2890   1.363       .  A
C2888      C2894   1.392       .  A
C2889      C2897   1.365       .  A
C2890      N2891   1.346       .  A
C2890      H2903   1.076       .  S
N2891      C2892   1.358       .  A
N2891      C2989   1.433       .  S
C2892      H2893   1.082       .  S
C2894      N2895   1.370       .  A
C2894      H2904   1.081       .  S
N2895      C2896   1.361       .  A
N2895      N3336   1.427   1_545  S
C2896      H2902   1.081       .  S
C2897      N2898   1.347       .  A
C2897      H2899   1.077       .  S
N2898      C2900   1.358       .  A
N2898      C3003   1.434       .  S
C2900      H2901   1.082       .  S
C2905      C2906   1.416       .  A
C2906      C2907   1.408       .  A
C2906      C2911   1.439       .  S
C2907      C2908   1.413       .  A
C2907      C2914   1.454       .  S
C2909      C2910   1.421       .  A
C2909      C2912   1.450       .  S
C2910      C2913   1.450       .  S
C2911      N2918   1.154       .  T
C2912      N2917   1.157       .  T
C2913      N2915   1.157       .  T
C2914      N2916   1.157       .  T
C2919      C2920   1.415       .  A
C2920      C2921   1.407       .  A
C2920      C2925   1.440       .  S
C2921      C2922   1.413       .  A
C2921      C2928   1.454       .  S
C2923      C2924   1.419       .  A
C2923      C2926   1.449       .  S
C2924      C2927   1.451       .  S
C2925      N2932   1.154       .  T
C2926      N2931   1.157       .  T
C2927      N2929   1.157       .  T
C2928      N2930   1.157       .  T
C2933      C2934   1.421       .  A
C2934      C2935   1.404       .  A
C2934      C2939   1.451       .  S
C2935      C2936   1.402       .  A
C2935      C2942   1.449       .  S
C2937      C2938   1.409   1_655  A
C2937      C2940   1.443       .  S
C2938      C2941   1.450   1_455  S
C2939      N3410   1.157   1_545  T
C2940      N2945   1.156       .  T
C2941      N2943   1.157       .  T
C2942      N2944   1.156   1_545  T
N2946      C3403   1.157       .  T
C2947      C2948   1.409       .  A
C2948      C2949   1.409       .  A
C2948      C2953   1.449       .  S
C2949      C2950   1.410       .  A
C2949      C2956   1.444       .  S
C2951      C2952   1.403       .  A
C2951      C2954   1.448       .  S
C2952      C2955   1.450       .  S
C2953      N2960   1.157       .  T
C2954      N2959   1.156   1_545  T
C2955      N3421   1.157   1_545  T
C2956      N2958   1.156       .  T
N2957      C3419   1.157       .  T
C2961      C2962   1.411       .  A
C2961      C2966   1.425       .  A
C2962      C2963   1.406       .  A
C2962      C2967   1.454       .  S
C2963      C2964   1.414       .  A
C2963      C2970   1.436       .  S
C2964      C2965   1.414       .  A
C2965      C2966   1.420       .  A
C2965      C2968   1.450       .  S
C2966      C2969   1.450       .  S
C2967      N2974   1.157       .  T
C2968      N2973   1.157       .  T
C2969      N2971   1.157       .  T
C2970      N2972   1.153       .  T
C2975      C2976   1.424       .  A
C2975      C2980   1.414       .  A
C2976      C2977   1.419       .  A
C2976      C2981   1.450       .  S
C2977      C2978   1.417       .  A
C2977      C2984   1.450       .  S
C2978      C2979   1.416       .  A
C2979      C2980   1.408       .  A
C2979      C2982   1.438       .  S
C2980      C2983   1.454       .  S
C2981      N2988   1.157       .  T
C2982      N2987   1.154       .  T
C2983      N2985   1.157       .  T
C2984      N2986   1.157       .  T
C2989      C2990   1.401       .  A
C2989      C2994   1.410       .  A
C2990      C2991   1.404       .  A
C2990      C2995   1.449       .  S
C2991      C2992   1.422       .  A
C2991      C2998   1.451       .  S
C2992      C2993   1.409       .  A
C2993      C2994   1.408       .  A
C2993      C2996   1.449       .  S
C2994      C2997   1.445       .  S
C2995      N3002   1.156       .  T
C2996      N3001   1.157       .  T
C2997      N2999   1.156       .  T
C2998      N3000   1.157       .  T
C3003      C3004   1.410       .  A
C3003      C3008   1.401       .  A
C3004      C3005   1.409       .  A
C3004      C3009   1.445       .  S
C3005      C3006   1.409       .  A
C3005      C3012   1.449       .  S
C3006      C3007   1.421       .  A
C3007      C3008   1.405       .  A
C3007      C3010   1.451       .  S
C3008      C3011   1.449       .  S
C3009      N3016   1.156       .  T
C3010      N3015   1.157       .  T
C3011      N3013   1.156       .  T
C3012      N3014   1.157       .  T
O3017      V3025   1.885       .  S
O3017      C3027   1.261       .  A
O3018      C3028   1.265       .  A
O3019      V3025   1.885       .  S
O3019      C3029   1.263       .  A
O3020      C3030   1.259       .  A
O3021      V3026   1.901   1_556  S
O3021      C3030   1.266       .  A
O3022      C3029   1.267       .  A
O3023      V3026   1.908   1_556  S
O3023      C3028   1.266       .  A
O3024      C3027   1.265       .  A
C3027      C3238   1.481       .  S
C3028      C3193   1.502       .  S
C3029      C3207   1.503       .  S
C3030      C3224   1.480       .  S
O3031      V3503   1.910   1_556  S
O3033      V3039   1.899   1_556  S
O3034      V3271   1.908       .  S
O3035      V3504   1.886       .  S
O3035      C3044   1.264       .  A
O3036      C3043   1.260       .  A
O3037      V3040   1.882   1_545  S
O3037      C3042   1.260       .  A
O3038      V3272   1.887       .  S
O3038      C3041   1.264       .  A
V3039      O3495   1.910   1_544  S
V3039      O3266   1.908   1_545  S
V3040      O3499   1.886       .  S
V3040      O3270   1.887       .  S
C3041      C3140   1.505       .  S
C3042      C3179   1.479       .  S
C3043      C3165   1.480       .  S
C3044      C3154   1.503       .  S
C3045      C3047   1.542       .  S
C3045      C3049   1.545       .  S
C3045      C3048   1.556       .  S
C3045      C3115   1.559       .  S
C3046      C3050   1.527       .  S
C3046      C3052   1.527       .  S
C3046      C3051   1.554       .  S
C3046      C3114   1.559       .  S
C3047      C3055   1.384       .  A
C3048      C3059   1.388       .  A
C3049      C3063   1.386       .  A
C3050      C3053   1.364       .  A
C3051      C3057   1.392       .  A
C3052      C3060   1.365       .  A
C3053      N3054   1.347       .  A
C3053      H3066   1.076       .  S
N3054      C3182   1.433       .  S
C3055      H3056   1.082       .  S
C3057      N3058   1.370       .  A
C3057      H3067   1.081       .  S
N3058      N3081   1.428       .  S
C3059      H3065   1.081       .  S
C3060      N3061   1.347       .  A
C3060      H3062   1.077       .  S
N3061      C3168   1.435       .  S
C3063      H3064   1.082       .  S
C3068      C3070   1.537       .  S
C3068      C3072   1.537       .  S
C3068      C3071   1.557       .  S
C3068      C3091   1.561       .  S
C3069      C3073   1.544       .  S
C3069      C3075   1.546       .  S
C3069      C3074   1.552       .  S
C3069      C3092   1.562       .  S
C3070      C3078   1.376       .  A
C3071      C3082   1.389       .  A
C3072      C3086   1.375       .  A
C3073      C3076   1.378       .  A
C3074      C3080   1.392       .  A
C3075      C3083   1.381       .  A
C3076      H3089   1.081       .  S
N3077      C3078   1.365       .  A
N3077      C3151   1.459       .  S
C3078      H3079   1.077       .  S
C3080      H3090   1.081       .  S
N3081      C3082   1.362       .  A
C3082      H3088   1.081       .  S
C3083      H3085   1.081       .  S
N3084      C3086   1.365       .  A
N3084      C3137   1.463       .  S
C3086      H3087   1.076       .  S
C3091      C3093   1.543       .  S
C3091      C3095   1.544       .  S
C3091      C3094   1.552       .  S
C3092      C3096   1.540       .  S
C3092      C3098   1.538       .  S
C3092      C3097   1.556       .  S
C3093      C3101   1.378       .  A
C3093      C3096   1.387       .  A
C3094      C3105   1.391       .  A
C3094      C3097   1.394       .  A
C3095      C3109   1.380       .  A
C3095      C3098   1.387       .  A
C3096      C3099   1.378       .  A
C3097      C3103   1.389       .  A
C3098      C3106   1.376       .  A
C3099      N3100   1.367       .  A
C3099      H3112   1.077       .  S
N3100      C3101   1.362       .  A
N3100      C3210   1.461       .  S
C3101      H3102   1.081       .  S
C3103      N3104   1.362       .  A
C3103      H3113   1.081       .  S
N3104      C3105   1.369       .  A
N3104      N3591   1.427       .  S
C3105      H3111   1.081       .  S
C3106      N3107   1.365       .  A
C3106      H3108   1.077       .  S
N3107      C3109   1.363       .  A
N3107      C3196   1.460       .  S
C3109      H3110   1.082       .  S
C3114      C3116   1.542       .  S
C3114      C3118   1.543       .  S
C3114      C3117   1.555       .  S
C3115      C3119   1.525       .  S
C3115      C3121   1.528       .  S
C3115      C3120   1.554       .  S
C3116      C3124   1.384       .  A
C3116      C3119   1.391       .  A
C3117      C3128   1.388       .  A
C3117      C3120   1.395       .  A
C3118      C3132   1.384       .  A
C3118      C3121   1.392       .  A
C3119      C3122   1.363       .  A
C3120      C3126   1.392       .  A
C3121      C3129   1.365       .  A
C3122      N3123   1.346       .  A
C3122      H3135   1.076       .  S
N3123      C3124   1.358       .  A
N3123      C3221   1.433       .  S
C3124      H3125   1.082       .  S
C3126      N3127   1.370       .  A
C3126      H3136   1.081       .  S
N3127      C3128   1.361       .  A
N3127      N3568   1.427   1_545  S
C3128      H3134   1.081       .  S
C3129      N3130   1.347       .  A
C3129      H3131   1.077       .  S
N3130      C3132   1.358       .  A
N3130      C3235   1.434       .  S
C3132      H3133   1.082       .  S
C3137      C3138   1.416       .  A
C3138      C3139   1.408       .  A
C3138      C3143   1.439       .  S
C3139      C3140   1.413       .  A
C3139      C3146   1.454       .  S
C3141      C3142   1.421       .  A
C3141      C3144   1.450       .  S
C3142      C3145   1.450       .  S
C3143      N3150   1.154       .  T
C3144      N3149   1.157       .  T
C3145      N3147   1.157       .  T
C3146      N3148   1.157       .  T
C3151      C3152   1.415       .  A
C3152      C3153   1.408       .  A
C3152      C3157   1.440       .  S
C3153      C3154   1.413       .  A
C3153      C3160   1.454       .  S
C3155      C3156   1.419       .  A
C3155      C3158   1.449       .  S
C3156      C3159   1.451       .  S
C3157      N3164   1.154       .  T
C3158      N3163   1.157       .  T
C3159      N3161   1.157       .  T
C3160      N3162   1.157       .  T
C3165      C3166   1.421       .  A
C3166      C3167   1.404       .  A
C3166      C3171   1.451       .  S
C3167      C3168   1.402       .  A
C3167      C3174   1.449       .  S
C3169      C3170   1.409   1_655  A
C3169      C3172   1.443       .  S
C3170      C3173   1.450   1_455  S
C3171      N3642   1.157   1_545  T
C3172      N3177   1.156       .  T
C3173      N3175   1.157       .  T
C3174      N3176   1.156   1_545  T
N3178      C3635   1.157       .  T
C3179      C3180   1.409       .  A
C3180      C3181   1.409       .  A
C3180      C3185   1.449       .  S
C3181      C3182   1.410       .  A
C3181      C3188   1.444       .  S
C3183      C3184   1.403       .  A
C3183      C3186   1.448       .  S
C3184      C3187   1.450       .  S
C3185      N3192   1.157       .  T
C3186      N3191   1.156   1_545  T
C3187      N3653   1.157   1_545  T
C3188      N3190   1.156       .  T
N3189      C3651   1.157       .  T
C3193      C3194   1.411       .  A
C3193      C3198   1.425       .  A
C3194      C3195   1.406       .  A
C3194      C3199   1.454       .  S
C3195      C3196   1.414       .  A
C3195      C3202   1.436       .  S
C3196      C3197   1.414       .  A
C3197      C3198   1.420       .  A
C3197      C3200   1.450       .  S
C3198      C3201   1.450       .  S
C3199      N3206   1.157       .  T
C3200      N3205   1.157       .  T
C3201      N3203   1.157       .  T
C3202      N3204   1.153       .  T
C3207      C3208   1.424       .  A
C3207      C3212   1.414       .  A
C3208      C3209   1.419       .  A
C3208      C3213   1.450       .  S
C3209      C3210   1.417       .  A
C3209      C3216   1.450       .  S
C3210      C3211   1.416       .  A
C3211      C3212   1.408       .  A
C3211      C3214   1.438       .  S
C3212      C3215   1.454       .  S
C3213      N3220   1.157       .  T
C3214      N3219   1.154       .  T
C3215      N3217   1.157       .  T
C3216      N3218   1.157       .  T
C3221      C3222   1.401       .  A
C3221      C3226   1.410       .  A
C3222      C3223   1.404       .  A
C3222      C3227   1.449       .  S
C3223      C3224   1.422       .  A
C3223      C3230   1.451       .  S
C3224      C3225   1.409       .  A
C3225      C3226   1.408       .  A
C3225      C3228   1.449       .  S
C3226      C3229   1.445       .  S
C3227      N3234   1.156       .  T
C3228      N3233   1.157       .  T
C3229      N3231   1.156       .  T
C3230      N3232   1.157       .  T
C3235      C3236   1.410       .  A
C3235      C3240   1.402       .  A
C3236      C3237   1.409       .  A
C3236      C3241   1.445       .  S
C3237      C3238   1.409       .  A
C3237      C3244   1.449       .  S
C3238      C3239   1.421       .  A
C3239      C3240   1.405       .  A
C3239      C3242   1.451       .  S
C3240      C3243   1.449       .  S
C3241      N3248   1.156       .  T
C3242      N3247   1.157       .  T
C3243      N3245   1.156       .  T
C3244      N3246   1.157       .  T
O3249      V3257   1.885   1_554  S
O3249      C3259   1.261       .  A
O3250      V3489   1.889       .  S
O3250      C3260   1.265       .  A
O3251      V3257   1.886   1_554  S
O3251      C3261   1.263       .  A
O3252      V3489   1.881       .  S
O3252      C3262   1.259       .  A
O3253      V3258   1.901       .  S
O3253      C3262   1.266       .  A
O3254      V3490   1.909       .  S
O3254      C3261   1.267       .  A
O3255      V3258   1.908       .  S
O3255      C3260   1.266       .  A
O3256      V3490   1.900       .  S
O3256      C3259   1.265       .  A
V3257      O3482   1.890       .  S
V3257      O3484   1.881       .  S
V3257      V3490   2.084   1_556  T
V3258      O3486   1.909       .  S
V3258      O3488   1.900       .  S
V3258      V3489   2.084       .  T
C3259      C3470   1.481       .  S
C3260      C3425   1.502       .  S
C3261      C3439   1.503       .  S
C3262      C3456   1.480       .  S
O3264      V3503   1.901       .  S
O3265      V3271   1.899       .  S
O3267      C3276   1.264       .  A
O3268      V3504   1.881       .  S
O3268      C3275   1.260       .  A
O3269      V3272   1.882   1_554  S
O3269      C3274   1.260       .  A
O3270      C3273   1.264       .  A
V3271      O3496   1.901       .  S
V3272      O3500   1.881       .  S
C3273      C3372   1.505       .  S
C3274      C3411   1.479       .  S
C3275      C3397   1.480       .  S
C3276      C3386   1.503       .  S
C3277      C3279   1.542       .  S
C3277      C3281   1.545       .  S
C3277      C3280   1.556       .  S
C3277      C3347   1.559       .  S
C3278      C3282   1.527       .  S
C3278      C3284   1.527       .  S
C3278      C3283   1.554       .  S
C3278      C3346   1.559       .  S
C3279      C3287   1.384       .  A
C3280      C3291   1.388       .  A
C3281      C3295   1.386       .  A
C3282      C3285   1.364       .  A
C3283      C3289   1.392       .  A
C3284      C3292   1.365       .  A
C3285      N3286   1.347       .  A
C3285      H3298   1.076       .  S
N3286      C3414   1.433       .  S
C3287      H3288   1.082       .  S
C3289      N3290   1.370       .  A
C3289      H3299   1.081       .  S
N3290      N3313   1.428       .  S
C3291      H3297   1.081       .  S
C3292      N3293   1.347       .  A
C3292      H3294   1.077       .  S
N3293      C3400   1.435       .  S
C3295      H3296   1.082       .  S
C3300      C3302   1.537       .  S
C3300      C3304   1.537       .  S
C3300      C3303   1.557       .  S
C3300      C3323   1.561       .  S
C3301      C3305   1.544       .  S
C3301      C3307   1.546       .  S
C3301      C3306   1.552       .  S
C3301      C3324   1.562       .  S
C3302      C3310   1.376       .  A
C3303      C3314   1.389       .  A
C3304      C3318   1.375       .  A
C3305      C3308   1.378       .  A
C3306      C3312   1.392       .  A
C3307      C3315   1.381       .  A
C3308      H3321   1.081       .  S
N3309      C3310   1.365       .  A
N3309      C3383   1.459       .  S
C3310      H3311   1.077       .  S
C3312      H3322   1.081       .  S
N3313      C3314   1.362       .  A
C3314      H3320   1.081       .  S
C3315      H3317   1.081       .  S
N3316      C3318   1.365       .  A
N3316      C3369   1.463       .  S
C3318      H3319   1.076       .  S
C3323      C3325   1.542       .  S
C3323      C3327   1.544       .  S
C3323      C3326   1.552       .  S
C3324      C3328   1.540       .  S
C3324      C3330   1.538       .  S
C3324      C3329   1.556       .  S
C3325      C3333   1.378       .  A
C3325      C3328   1.387       .  A
C3326      C3337   1.391       .  A
C3326      C3329   1.394       .  A
C3327      C3341   1.380       .  A
C3327      C3330   1.387       .  A
C3328      C3331   1.378       .  A
C3329      C3335   1.389       .  A
C3330      C3338   1.377       .  A
C3331      N3332   1.367       .  A
C3331      H3344   1.077       .  S
N3332      C3333   1.362       .  A
N3332      C3442   1.461       .  S
C3333      H3334   1.081       .  S
C3335      N3336   1.362       .  A
C3335      H3345   1.081       .  S
N3336      C3337   1.369       .  A
C3337      H3343   1.081       .  S
C3338      N3339   1.365       .  A
C3338      H3340   1.077       .  S
N3339      C3341   1.363       .  A
N3339      C3428   1.460       .  S
C3341      H3342   1.082       .  S
C3346      C3348   1.542       .  S
C3346      C3350   1.543       .  S
C3346      C3349   1.555       .  S
C3347      C3351   1.525       .  S
C3347      C3353   1.528       .  S
C3347      C3352   1.554       .  S
C3348      C3356   1.384       .  A
C3348      C3351   1.391       .  A
C3349      C3360   1.388       .  A
C3349      C3352   1.395       .  A
C3350      C3364   1.384       .  A
C3350      C3353   1.392       .  A
C3351      C3354   1.363       .  A
C3352      C3358   1.392       .  A
C3353      C3361   1.365       .  A
C3354      N3355   1.346       .  A
C3354      H3367   1.076       .  S
N3355      C3356   1.358       .  A
N3355      C3453   1.433       .  S
C3356      H3357   1.082       .  S
C3358      N3359   1.370       .  A
C3358      H3368   1.081       .  S
N3359      C3360   1.361       .  A
C3360      H3366   1.081       .  S
C3361      N3362   1.347       .  A
C3361      H3363   1.077       .  S
N3362      C3364   1.358       .  A
N3362      C3467   1.434       .  S
C3364      H3365   1.082       .  S
C3369      C3370   1.416       .  A
C3370      C3371   1.408       .  A
C3370      C3375   1.439       .  S
C3371      C3372   1.413       .  A
C3371      C3378   1.454       .  S
C3373      C3374   1.421       .  A
C3373      C3376   1.450   1_565  S
C3374      C3377   1.450       .  S
C3375      N3382   1.154       .  T
C3376      N3381   1.157       .  T
C3377      N3379   1.157       .  T
C3378      N3380   1.157       .  T
C3383      C3384   1.415       .  A
C3384      C3385   1.407       .  A
C3384      C3389   1.440       .  S
C3385      C3386   1.413       .  A
C3385      C3392   1.454       .  S
C3387      C3388   1.419       .  A
C3387      C3390   1.449       .  S
C3388      C3391   1.451       .  S
C3389      N3396   1.154       .  T
C3390      N3395   1.157   1_565  T
C3391      N3393   1.157       .  T
C3392      N3394   1.157       .  T
C3397      C3398   1.421       .  A
C3398      C3399   1.404       .  A
C3398      C3403   1.451       .  S
C3399      C3400   1.402       .  A
C3399      C3406   1.449       .  S
C3401      C3402   1.409   1_655  A
C3401      C3404   1.443       .  S
C3402      C3405   1.450   1_455  S
C3404      N3409   1.156       .  T
C3405      N3407   1.157       .  T
C3406      N3408   1.156       .  T
C3411      C3412   1.409       .  A
C3412      C3413   1.409       .  A
C3412      C3417   1.449       .  S
C3413      C3414   1.410       .  A
C3413      C3420   1.444       .  S
C3415      C3416   1.403       .  A
C3415      C3418   1.448       .  S
C3416      C3419   1.450       .  S
C3417      N3424   1.157       .  T
C3418      N3423   1.156       .  T
C3420      N3422   1.156       .  T
C3425      C3426   1.411       .  A
C3425      C3430   1.425       .  A
C3426      C3427   1.406       .  A
C3426      C3431   1.454       .  S
C3427      C3428   1.414       .  A
C3427      C3434   1.436       .  S
C3428      C3429   1.414       .  A
C3429      C3430   1.420       .  A
C3429      C3432   1.450       .  S
C3430      C3433   1.450       .  S
C3431      N3438   1.157       .  T
C3432      N3437   1.157       .  T
C3433      N3435   1.157       .  T
C3434      N3436   1.153       .  T
C3439      C3440   1.424       .  A
C3439      C3444   1.414       .  A
C3440      C3441   1.419       .  A
C3440      C3445   1.450       .  S
C3441      C3442   1.417       .  A
C3441      C3448   1.450       .  S
C3442      C3443   1.416       .  A
C3443      C3444   1.408       .  A
C3443      C3446   1.438       .  S
C3444      C3447   1.454       .  S
C3445      N3452   1.157       .  T
C3446      N3451   1.154       .  T
C3447      N3449   1.157       .  T
C3448      N3450   1.157       .  T
C3453      C3454   1.401       .  A
C3453      C3458   1.410       .  A
C3454      C3455   1.404       .  A
C3454      C3459   1.449       .  S
C3455      C3456   1.422       .  A
C3455      C3462   1.451       .  S
C3456      C3457   1.409       .  A
C3457      C3458   1.408       .  A
C3457      C3460   1.449       .  S
C3458      C3461   1.445       .  S
C3459      N3466   1.156       .  T
C3460      N3465   1.157       .  T
C3461      N3463   1.156       .  T
C3462      N3464   1.157       .  T
C3467      C3468   1.410       .  A
C3467      C3472   1.401       .  A
C3468      C3469   1.409       .  A
C3468      C3473   1.445       .  S
C3469      C3470   1.409       .  A
C3469      C3476   1.449       .  S
C3470      C3471   1.421       .  A
C3471      C3472   1.405       .  A
C3471      C3474   1.451       .  S
C3472      C3475   1.449       .  S
C3473      N3480   1.156       .  T
C3474      N3479   1.157       .  T
C3475      N3477   1.156       .  T
C3476      N3478   1.157       .  T
O3481      V3489   1.885       .  S
O3481      C3491   1.261       .  A
O3482      C3492   1.265       .  A
O3483      V3489   1.885       .  S
O3483      C3493   1.263       .  A
O3484      C3494   1.259       .  A
O3485      V3490   1.901   1_556  S
O3485      C3494   1.266       .  A
O3486      C3493   1.267       .  A
O3487      V3490   1.908   1_556  S
O3487      C3492   1.266       .  A
O3488      C3491   1.265       .  A
C3491      C3702   1.481       .  S
C3492      C3657   1.502       .  S
C3493      C3671   1.503       .  S
C3494      C3688   1.480       .  S
O3497      V3503   1.899   1_556  S
O3499      C3508   1.264       .  A
O3500      C3507   1.260       .  A
O3501      V3504   1.882       .  S
O3501      C3506   1.260       .  A
O3502      C3505   1.264       .  A
C3505      C3604   1.505       .  S
C3506      C3643   1.479       .  S
C3507      C3629   1.480       .  S
C3508      C3618   1.503       .  S
C3509      C3511   1.542       .  S
C3509      C3513   1.545       .  S
C3509      C3512   1.556       .  S
C3509      C3579   1.559       .  S
C3510      C3514   1.527       .  S
C3510      C3516   1.527       .  S
C3510      C3515   1.554       .  S
C3510      C3578   1.559       .  S
C3511      C3519   1.384       .  A
C3512      C3523   1.388       .  A
C3513      C3527   1.386       .  A
C3514      C3517   1.364       .  A
C3515      C3521   1.392       .  A
C3516      C3524   1.365       .  A
C3517      N3518   1.347       .  A
C3517      H3530   1.076       .  S
N3518      C3646   1.433       .  S
C3519      H3520   1.082       .  S
C3521      N3522   1.370       .  A
C3521      H3531   1.081       .  S
N3522      N3545   1.428       .  S
C3523      H3529   1.081       .  S
C3524      N3525   1.347       .  A
C3524      H3526   1.077       .  S
N3525      C3632   1.435       .  S
C3527      H3528   1.082       .  S
C3532      C3534   1.537       .  S
C3532      C3536   1.537       .  S
C3532      C3535   1.557       .  S
C3532      C3555   1.561       .  S
C3533      C3537   1.544       .  S
C3533      C3539   1.546       .  S
C3533      C3538   1.552       .  S
C3533      C3556   1.562       .  S
C3534      C3542   1.376       .  A
C3535      C3546   1.389       .  A
C3536      C3550   1.375       .  A
C3537      C3540   1.378       .  A
C3538      C3544   1.392       .  A
C3539      C3547   1.381       .  A
C3540      H3553   1.081       .  S
N3541      C3542   1.365       .  A
N3541      C3615   1.459       .  S
C3542      H3543   1.077       .  S
C3544      H3554   1.081       .  S
N3545      C3546   1.362       .  A
C3546      H3552   1.081       .  S
C3547      H3549   1.081       .  S
N3548      C3550   1.365       .  A
N3548      C3601   1.463       .  S
C3550      H3551   1.076       .  S
C3555      C3557   1.543       .  S
C3555      C3559   1.544       .  S
C3555      C3558   1.552       .  S
C3556      C3560   1.540       .  S
C3556      C3562   1.538       .  S
C3556      C3561   1.556       .  S
C3557      C3565   1.378       .  A
C3557      C3560   1.387       .  A
C3558      C3569   1.391       .  A
C3558      C3561   1.394       .  A
C3559      C3573   1.380       .  A
C3559      C3562   1.387       .  A
C3560      C3563   1.378       .  A
C3561      C3567   1.389       .  A
C3562      C3570   1.376       .  A
C3563      N3564   1.367       .  A
C3563      H3576   1.077       .  S
N3564      C3565   1.362       .  A
N3564      C3674   1.461       .  S
C3565      H3566   1.081       .  S
C3567      N3568   1.362       .  A
C3567      H3577   1.081       .  S
N3568      C3569   1.369       .  A
C3569      H3575   1.081       .  S
C3570      N3571   1.365       .  A
C3570      H3572   1.077       .  S
N3571      C3573   1.363       .  A
N3571      C3660   1.460       .  S
C3573      H3574   1.082       .  S
C3578      C3580   1.542       .  S
C3578      C3582   1.543       .  S
C3578      C3581   1.555       .  S
C3579      C3583   1.525       .  S
C3579      C3585   1.528       .  S
C3579      C3584   1.554       .  S
C3580      C3588   1.384       .  A
C3580      C3583   1.391       .  A
C3581      C3592   1.388       .  A
C3581      C3584   1.395       .  A
C3582      C3596   1.384       .  A
C3582      C3585   1.392       .  A
C3583      C3586   1.363       .  A
C3584      C3590   1.392       .  A
C3585      C3593   1.365       .  A
C3586      N3587   1.346       .  A
C3586      H3599   1.076       .  S
N3587      C3588   1.358       .  A
N3587      C3685   1.433       .  S
C3588      H3589   1.082       .  S
C3590      N3591   1.370       .  A
C3590      H3600   1.081       .  S
N3591      C3592   1.361       .  A
C3592      H3598   1.081       .  S
C3593      N3594   1.347       .  A
C3593      H3595   1.077       .  S
N3594      C3596   1.358       .  A
N3594      C3699   1.434       .  S
C3596      H3597   1.082       .  S
C3601      C3602   1.416       .  A
C3602      C3603   1.408       .  A
C3602      C3607   1.439       .  S
C3603      C3604   1.413       .  A
C3603      C3610   1.454       .  S
C3605      C3606   1.421       .  A
C3605      C3608   1.450   1_565  S
C3606      C3609   1.450       .  S
C3607      N3614   1.154       .  T
C3608      N3613   1.157       .  T
C3609      N3611   1.157       .  T
C3610      N3612   1.157       .  T
C3615      C3616   1.415       .  A
C3616      C3617   1.408       .  A
C3616      C3621   1.440       .  S
C3617      C3618   1.413       .  A
C3617      C3624   1.454       .  S
C3619      C3620   1.419       .  A
C3619      C3622   1.449       .  S
C3620      C3623   1.451       .  S
C3621      N3628   1.154       .  T
C3622      N3627   1.157   1_565  T
C3623      N3625   1.157       .  T
C3624      N3626   1.157       .  T
C3629      C3630   1.421       .  A
C3630      C3631   1.404       .  A
C3630      C3635   1.451       .  S
C3631      C3632   1.402       .  A
C3631      C3638   1.449       .  S
C3633      C3634   1.409   1_655  A
C3633      C3636   1.443       .  S
C3634      C3637   1.450   1_455  S
C3636      N3641   1.156       .  T
C3637      N3639   1.157       .  T
C3638      N3640   1.156       .  T
C3643      C3644   1.409       .  A
C3644      C3645   1.409       .  A
C3644      C3649   1.449       .  S
C3645      C3646   1.410       .  A
C3645      C3652   1.444       .  S
C3647      C3648   1.403       .  A
C3647      C3650   1.448       .  S
C3648      C3651   1.450       .  S
C3649      N3656   1.157       .  T
C3650      N3655   1.156       .  T
C3652      N3654   1.156       .  T
C3657      C3658   1.411       .  A
C3657      C3662   1.425       .  A
C3658      C3659   1.406       .  A
C3658      C3663   1.454       .  S
C3659      C3660   1.414       .  A
C3659      C3666   1.436       .  S
C3660      C3661   1.414       .  A
C3661      C3662   1.420       .  A
C3661      C3664   1.450       .  S
C3662      C3665   1.450       .  S
C3663      N3670   1.157       .  T
C3664      N3669   1.157       .  T
C3665      N3667   1.157       .  T
C3666      N3668   1.153       .  T
C3671      C3672   1.424       .  A
C3671      C3676   1.414       .  A
C3672      C3673   1.419       .  A
C3672      C3677   1.450       .  S
C3673      C3674   1.417       .  A
C3673      C3680   1.450       .  S
C3674      C3675   1.416       .  A
C3675      C3676   1.408       .  A
C3675      C3678   1.438       .  S
C3676      C3679   1.454       .  S
C3677      N3684   1.157       .  T
C3678      N3683   1.154       .  T
C3679      N3681   1.157       .  T
C3680      N3682   1.157       .  T
C3685      C3686   1.401       .  A
C3685      C3690   1.410       .  A
C3686      C3687   1.404       .  A
C3686      C3691   1.449       .  S
C3687      C3688   1.422       .  A
C3687      C3694   1.451       .  S
C3688      C3689   1.409       .  A
C3689      C3690   1.408       .  A
C3689      C3692   1.449       .  S
C3690      C3693   1.445       .  S
C3691      N3698   1.156       .  T
C3692      N3697   1.157       .  T
C3693      N3695   1.156       .  T
C3694      N3696   1.157       .  T
C3699      C3700   1.410       .  A
C3699      C3704   1.402       .  A
C3700      C3701   1.409       .  A
C3700      C3705   1.445       .  S
C3701      C3702   1.409       .  A
C3701      C3708   1.449       .  S
C3702      C3703   1.421       .  A
C3703      C3704   1.405       .  A
C3703      C3706   1.451       .  S
C3704      C3707   1.449       .  S
C3705      N3712   1.156       .  T
C3706      N3711   1.157       .  T
C3707      N3709   1.156       .  T
C3708      N3710   1.157       .  T
