geometry optimzed in LAMMPS
_audit_creation_date              2020-12-01 
_audit_creation_method            'lammps2cif' 
_symmetry_space_group_name_H-M    'P1' 
_symmetry_Int_Tables_number       1 
_symmetry_cell_setting            triclinic 
loop_ 
_symmetry_equiv_pos_as_xyz 
  x,y,z 
_cell_length_a                    44.31915023 
_cell_length_b                    44.32203279800943 
_cell_length_c                    29.70205358359567 
_cell_angle_alpha                 89.42255773462257 
_cell_angle_beta                  90.05192628248989 
_cell_angle_gamma                 120.51236733213065 
loop_ 
_atom_site_label 
_atom_site_type_symbol 
_atom_site_fract_x 
_atom_site_fract_y 
_atom_site_fract_z 
_atom_site_charge 
C1          C  0.73643365  0.00297831  0.99530470     0.80400
N2          N  0.72117185  0.00340797  0.28903794    -0.77900
C3          C  0.69125605  0.00481551  0.28863989     0.82800
N4          N  0.67628079  0.00556489  0.32817444    -0.77800
C5          C  0.69131186  0.00522419  0.03458450     0.82900
N6          N  0.72131982  0.00403526  0.03462837    -0.79600
O7          O  0.68954122  0.00764752  0.11474314    -0.57600
C8          C  0.67495794  0.00510125  0.24569484     0.75000
O9          O  0.61689989  0.04182922  0.17820240    -0.58800
C10         C  0.67484056  0.00536543  0.07735490     0.75000
C11         C  0.57909194  0.93592747  0.15902708     0.77400
Cd12       Cd  0.64202991  0.00430092  0.16146551     1.37500
O13         O  0.68752278  0.00314326  0.20833811    -0.57600
O14         O  0.60825642  0.94055189  0.17207979    -0.57300
C15         C  0.64287351  0.07002737  0.16360925     0.77300
O16         O  0.57870097  0.96328603  0.14732824    -0.58800
O17         O  0.64753652  0.00715923  0.24421600    -0.57300
O18         O  0.64513099  0.00289389  0.07869260    -0.57300
O19         O  0.66795333  0.06755609  0.14765098    -0.56400
C20         C  0.99474867  0.73873649  0.35051919     0.80400
N21         N  0.99551857  0.72364416  0.05693582    -0.77900
C22         C  0.99893258  0.69487255  0.05768335     0.82800
N23         N  0.00149569  0.68092395  0.35170596    -0.77800
C24         C  0.00070819  0.69569329  0.31179172     0.82900
N25         N  0.99733236  0.72447625  0.31139966    -0.79600
O26         O  0.99518140  0.68987784  0.13787362    -0.57600
C27         C  0.00161344  0.67962441  0.26920341     0.75000
O28         O  0.95913533  0.58336074  0.20234822    -0.58800
C29         C  0.99926488  0.67857397  0.10075887     0.75000
C30         C  0.06354997  0.64524401  0.17629818     0.77400
Cd31       Cd  0.99926840  0.64608389  0.18504339     1.37500
O32         O  0.00118781  0.69296760  0.23158751    -0.57600
O33         O  0.06291786  0.67331957  0.18019925    -0.56400
C34         C  0.93201205  0.58211134  0.18661023     0.77300
O35         O  0.03417152  0.61713709  0.17713823    -0.58800
O36         O  0.00199483  0.65132399  0.26819170    -0.57300
O37         O  0.00345022  0.65239049  0.10255736    -0.57300
O38         O  0.93612064  0.61033469  0.17004011    -0.56400
C39         C  0.62982579  0.33846965  0.19030068     0.80400
N40         N  0.62731388  0.30668290  0.18945604    -0.77900
C41         C  0.65628805  0.30379442  0.19221880     0.82800
N42         N  0.68812577  0.33338144  0.19571533    -0.77800
C43         C  0.69123108  0.36551992  0.19659619     0.82900
N44         N  0.66183288  0.36781060  0.19395155    -0.79600
C45         C  0.33254524  0.63616880  0.14416289     0.80400
N46         N  0.30068857  0.63353908  0.14549047    -0.77900
C47         C  0.29797026  0.66237629  0.15124303     0.82800
N48         N  0.32740120  0.69422148  0.15578239    -0.77800
C49         C  0.35948248  0.69732227  0.15360579     0.82900
N50         N  0.36177640  0.66821596  0.14775492    -0.79600
C51         C  0.25351496  0.25548273  0.31092862     0.80400
N52         N  0.27002590  0.27136395  0.01618432    -0.77900
C53         C  0.29997038  0.30289989  0.01528699     0.82800
N54         N  0.31378206  0.31891684  0.30857251    -0.77800
C55         C  0.29761736  0.30331301  0.26955922     0.82900
N56         N  0.26751029  0.27162739  0.27081345    -0.79600
O57         O  0.29957614  0.30608088  0.18923212    -0.57600
C58         C  0.31644428  0.31957451  0.05772156     0.75000
O59         O  0.37142760  0.41494682  0.12840003    -0.58800
C60         C  0.31329649  0.32020538  0.22633388     0.75000
C61         C  0.41016586  0.35036511  0.15236377     0.77400
Cd62       Cd  0.34651876  0.35180348  0.14217179     1.37500
O63         O  0.30369578  0.30455460  0.09505332    -0.57600
O64         O  0.38062811  0.32278859  0.14902275    -0.56400
C65         C  0.34396131  0.41510384  0.13960602     0.77300
O66         O  0.41042007  0.37900602  0.14981845    -0.58800
O67         O  0.34361664  0.34960108  0.05903105    -0.57300
O68         O  0.34164074  0.34936669  0.22444469    -0.57300
O69         O  0.31792212  0.38600666  0.15145465    -0.56400
C70         C  0.96160703  0.99675924  0.33506325     0.80400
N71         N  0.99302537  0.02708194  0.33317817    -0.77900
C72         C  0.02351599  0.02681113  0.33259743     0.82800
N73         N  0.02231167  0.99564733  0.33414389    -0.77800
C74         C  0.99133938  0.96495888  0.33612632     0.82900
N75         N  0.96098775  0.96570339  0.33634884    -0.79600
C76         C  0.12067889  0.09312450  0.31643641    -0.27400
C77         C  0.12173008  0.12466593  0.99117358     0.02200
C78         C  0.09064210  0.12402868  0.00275653     0.30300
C79         C  0.05896086  0.09207818  0.00506314    -0.19200
C80         C  0.05766669  0.06023262  0.33023614    -0.28600
C81         C  0.08918417  0.06111952  0.31928246     0.44300
C82         C  0.15547784  0.15802001  0.98761875     0.05500
O83         O  0.09080665  0.15463490  0.01012745    -0.57200
H84         H  0.03534815  0.09234272  0.01361534     0.18400
O85         O  0.08974163  0.03101361  0.31113931    -0.63900
H86         H  0.14455090  0.09333187  0.30787291     0.16900
C87         C  0.16955218  0.17998343  0.02499368     0.29100
C88         C  0.20136646  0.21143791  0.02098124    -0.24800
C89         C  0.21998039  0.22157918  0.31345627    -0.24000
C90         C  0.20619206  0.19900790  0.27627016     0.40600
C91         C  0.17420666  0.16744965  0.28043560    -0.26500
O92         O  0.15260112  0.17076484  0.06581537    -0.58400
H93         H  0.21131039  0.22799438  0.05027039     0.16200
O94         O  0.22420213  0.20681300  0.23627205    -0.59800
H95         H  0.16390925  0.15033159  0.25167530     0.14700
H96         H  0.08611252  0.02732317  0.27824337     0.46500
H97         H  0.16013323  0.15550153  0.08054097     0.41900
H98         H  0.21356654  0.21722497  0.21682719     0.45300
H99         H  0.08639061  0.15470854  0.04284741     0.36800
C100        C  0.36770335  0.57365996  0.14665330    -0.27400
C101        C  0.33764355  0.54190897  0.13593332     0.02200
C102        C  0.30619193  0.54132550  0.12694194     0.30300
C103        C  0.30508887  0.57223374  0.12900936    -0.19200
C104        C  0.33509366  0.60418028  0.14024651    -0.28600
C105        C  0.36664047  0.60456676  0.14918766     0.44300
C106        C  0.33912759  0.50936414  0.13598468     0.05500
O107        O  0.27631136  0.51060953  0.11641552    -0.57200
H108        H  0.28051432  0.57102773  0.12197367     0.18400
O109        O  0.39648843  0.63471953  0.16137787    -0.63900
H110        H  0.39194401  0.57432183  0.15431296     0.16900
C111        C  0.36369310  0.50639767  0.10925749     0.29100
C112        C  0.36534225  0.47572005  0.11107447    -0.24800
C113        C  0.34231002  0.44750556  0.13887789    -0.24000
C114        C  0.31782450  0.45061872  0.16572302     0.40600
C115        C  0.31637635  0.48135219  0.16408746    -0.26500
O116        O  0.38596998  0.53322307  0.08101134    -0.58400
H117        H  0.38428881  0.47379295  0.09013606     0.16200
O118        O  0.29553947  0.42403545  0.19425224    -0.59800
H119        H  0.29776394  0.48354759  0.18540183     0.14700
H120        H  0.39567212  0.63502171  0.19473456     0.46500
H121        H  0.37316499  0.52873584  0.05216833     0.41900
H122        H  0.30873680  0.42816896  0.22271725     0.45300
H123        H  0.27712047  0.50868687  0.08325756     0.36800
C124        C  0.54031752  0.32035684  0.15352582    -0.27400
C125        C  0.53765454  0.34656477  0.17607066     0.02200
C126        C  0.56550866  0.37016732  0.20352332     0.30300
C127        C  0.59558092  0.36747617  0.20759385    -0.19200
C128        C  0.59810456  0.34112055  0.18515085    -0.28600
C129        C  0.57012973  0.31751125  0.15782894     0.44300
C130        C  0.50525031  0.34820761  0.17106658     0.05500
O131        O  0.56266300  0.39452437  0.22846607    -0.57200
H132        H  0.61663901  0.38555961  0.22918292     0.18400
O133        O  0.57177883  0.29183573  0.13453164    -0.63900
H134        H  0.51923010  0.30212445  0.13207900     0.16900
C135        C  0.50635567  0.37940730  0.15804032     0.29100
C136        C  0.47523615  0.37986563  0.15283917    -0.24800
C137        C  0.44259853  0.34921382  0.15900167    -0.24000
C138        C  0.44150489  0.31785830  0.17143468     0.40600
C139        C  0.47263336  0.31760068  0.17744354    -0.26500
O140        O  0.53762390  0.40935078  0.14898907    -0.58400
H141        H  0.47669549  0.40415975  0.14289044     0.16200
O142        O  0.41023866  0.28724144  0.17768717    -0.59800
H143        H  0.47128701  0.29331743  0.18720395     0.14700
H144        H  0.58324969  0.30292539  0.10547421     0.46500
H145        H  0.54226697  0.40801954  0.11663085     0.41900
H146        H  0.40444356  0.28684104  0.21001419     0.45300
H147        H  0.58107915  0.41768491  0.21672343     0.36800
C148        C  0.13164638  0.61715248  0.17077102    -0.27400
C149        C  0.16227417  0.64953890  0.16338379     0.02200
C150        C  0.16008532  0.67991401  0.15835518     0.30300
C151        C  0.12770253  0.67789115  0.16213159    -0.19200
C152        C  0.09701386  0.64575785  0.17095596    -0.28600
C153        C  0.09912480  0.61507348  0.17471927     0.44300
C154        C  0.19660684  0.65173587  0.16126568     0.05500
O155        O  0.18940058  0.71150504  0.14823457    -0.57200
H156        H  0.12670100  0.70168698  0.15808320     0.18400
O157        O  0.06976516  0.58301646  0.18244327    -0.63900
H158        H  0.13307844  0.59355187  0.17429273     0.16900
C159        C  0.22294660  0.67190699  0.19258569     0.29100
C160        C  0.25612914  0.67577427  0.18837152    -0.24800
C161        C  0.26318505  0.65883280  0.15391939    -0.24000
C162        C  0.23659012  0.63791625  0.12321679     0.40600
C163        C  0.20355299  0.63461821  0.12691275    -0.26500
O164        O  0.21641204  0.68783943  0.22750251    -0.58400
H165        H  0.27619761  0.69146363  0.21262929     0.16200
O166        O  0.24321172  0.62212828  0.08818634    -0.59800
H167        H  0.18352696  0.61923104  0.10246502     0.14700
H168        H  0.06751910  0.58047612  0.21567876     0.46500
H169        H  0.20763218  0.67033702  0.25242457     0.41900
H170        H  0.23409158  0.59758868  0.09828114     0.45300
H171        H  0.19497972  0.72546066  0.17610613     0.36800
C172        C  0.76520284  0.46102021  0.19861077    -0.27400
C173        C  0.79456969  0.45748563  0.19174819     0.02200
C174        C  0.78987080  0.42379262  0.18756315     0.30300
C175        C  0.75631001  0.39430465  0.19048119    -0.19200
C176        C  0.72662019  0.39758755  0.19678520    -0.28600
C177        C  0.73148186  0.43154175  0.20115511     0.44300
C178        C  0.83001658  0.48905021  0.18938592     0.05500
O179        O  0.81787941  0.41939345  0.17963850    -0.57200
H180        H  0.75362037  0.36877415  0.18668261     0.18400
O181        O  0.70362136  0.43646111  0.20737910    -0.63900
H182        H  0.76845778  0.48680994  0.20227251     0.16900
C183        C  0.83764718  0.51657435  0.15887834     0.29100
C184        C  0.87093766  0.54664437  0.15833746    -0.24800
C185        C  0.89731112  0.54964765  0.18746308    -0.24000
C186        C  0.88981243  0.52179512  0.21745632     0.40600
C187        C  0.85639536  0.49186232  0.21824612    -0.26500
O188        O  0.81281329  0.51426901  0.12925581    -0.58400
H189        H  0.87620208  0.56757953  0.13474029     0.16200
O190        O  0.91467448  0.52373762  0.24673118    -0.59800
H191        H  0.85086641  0.47099448  0.24209230     0.14700
H192        H  0.70086087  0.43664895  0.24048675     0.46500
H193        H  0.81347891  0.50030090  0.10380369     0.41900
H194        H  0.91145767  0.53399780  0.27455528     0.45300
H195        H  0.82112979  0.42134797  0.14648747     0.36800
C196        C  0.99029944  0.81905728  0.05287617    -0.27400
C197        C  0.98817180  0.83266473  0.34425798     0.02200
C198        C  0.98691148  0.81486892  0.30485558     0.30300
C199        C  0.98869083  0.78425838  0.30753013    -0.19200
C200        C  0.99133777  0.77053682  0.34938748    -0.28600
C201        C  0.99134390  0.78802155  0.05578469     0.44300
C202        C  0.98864815  0.86621250  0.34194322     0.05500
O203        O  0.98562460  0.82816986  0.26345658    -0.57200
H204        H  0.98835304  0.77151485  0.27646079     0.18400
O205        O  0.99322561  0.77568020  0.09759054    -0.63900
H206        H  0.99115600  0.83259420  0.08346342     0.16900
C207        C  0.95841934  0.86736636  0.33091473     0.29100
C208        C  0.95950889  0.89954222  0.32955302    -0.24800
C209        C  0.99082419  0.93109305  0.33812138    -0.24000
C210        C  0.02136368  0.92969510  0.01521862     0.40600
C211        C  0.01995407  0.89745896  0.01732374    -0.26500
O212        O  0.92750378  0.83705011  0.32256036    -0.58400
H213        H  0.93578872  0.89972556  0.32131808     0.16200
O214        O  0.05279364  0.95949194  0.02334455    -0.59800
H215        H  0.04346477  0.89680719  0.02545513     0.14700
H216        H  0.96855242  0.76077114  0.10761913     0.46500
H217        H  0.92498292  0.83619814  0.28934759     0.41900
H218        H  0.05295523  0.96334476  0.05619651     0.45300
H219        H  0.96130512  0.81288210  0.25278469     0.36800
C220        C  0.51808281  0.83719164  0.16805163    -0.27400
C221        C  0.48589352  0.83361900  0.15563809     0.02200
C222        C  0.48461843  0.86378547  0.14360241     0.30300
C223        C  0.51504275  0.89684141  0.14487442    -0.19200
C224        C  0.54729894  0.90052687  0.15757257    -0.28600
C225        C  0.54862150  0.87013249  0.16868718     0.44300
C226        C  0.45377870  0.79842372  0.15582026     0.05500
O227        O  0.45376646  0.86124065  0.13031588    -0.57200
H228        H  0.51332165  0.91965526  0.13581448     0.18400
O229        O  0.57947382  0.87220766  0.18086560    -0.63900
H230        H  0.51953296  0.81434533  0.17780497     0.16900
C231        C  0.45264732  0.77033627  0.13255126     0.29100
C232        C  0.42191473  0.73753730  0.13274553    -0.24800
C233        C  0.39182957  0.73206439  0.15576693    -0.24000
C234        C  0.39316821  0.76002132  0.17972607     0.40600
C235        C  0.42396148  0.79280936  0.17964346    -0.26500
O236        O  0.48083630  0.77519357  0.10756056    -0.58400
H237        H  0.42142821  0.71652938  0.11380208     0.16200
O238        O  0.36469830  0.75561788  0.20358610    -0.59800
H239        H  0.42461771  0.81393752  0.19848779     0.14700
H240        H  0.58931369  0.86903117  0.15252885     0.46500
H241        H  0.49066505  0.76271367  0.12437903     0.41900
H242        H  0.36716434  0.74778862  0.23405893     0.45300
H243        H  0.45216352  0.85653486  0.09756904     0.36800
C244        C  0.67171032  0.16628314  0.14753188    -0.27400
C245        C  0.64805190  0.16941144  0.17565697     0.02200
C246        C  0.62186028  0.13940162  0.19835668     0.30300
C247        C  0.61998931  0.10712888  0.19330998    -0.19200
C248        C  0.64417677  0.10409299  0.16602109    -0.28600
C249        C  0.66990702  0.13403365  0.14249852     0.44300
C250        C  0.65040819  0.20384984  0.18044532     0.05500
O251        O  0.59821735  0.14140821  0.22608690    -0.57200
H252        H  0.59993980  0.08455257  0.21162021     0.18400
O253        O  0.69346853  0.13218719  0.11445267    -0.63900
H254        H  0.69146665  0.18888075  0.12895199     0.16900
C255        C  0.68190478  0.23396444  0.19286998     0.29100
C256        C  0.68321959  0.26604933  0.19738948    -0.24800
C257        C  0.65355005  0.26899147  0.18897657    -0.24000
C258        C  0.62208012  0.23866359  0.17617888     0.40600
C259        C  0.62076665  0.20661433  0.17221543    -0.26500
O260        O  0.71121216  0.23203028  0.20217158    -0.58400
H261        H  0.70770049  0.28869395  0.20744532     0.16200
O262        O  0.59239276  0.23985132  0.16693056    -0.59800
H263        H  0.59648347  0.18382374  0.16189696     0.14700
H264        H  0.68230242  0.12682153  0.08436925     0.46500
H265        H  0.72713666  0.24339655  0.17609193     0.41900
H266        H  0.59250233  0.24273619  0.13376227     0.45300
H267        H  0.61016613  0.14910021  0.25553139     0.36800
C268        C  0.81189700  0.99004965  0.29340202    -0.27400
C269        C  0.83163565  0.99872485  0.99974842     0.02200
C270        C  0.81996756  0.00860554  0.03777908     0.30300
C271        C  0.78905209  0.00983629  0.03578302    -0.19200
C272        C  0.76918587  0.00137004  0.99601730    -0.28600
C273        C  0.78094980  0.99126997  0.29124256     0.44300
C274        C  0.86463480  0.99791434  0.00089929     0.05500
O275        O  0.83863752  0.01708805  0.07710620    -0.57200
H276        H  0.78079701  0.01768748  0.06556009     0.18400
O277        O  0.76259438  0.98251067  0.25167357    -0.63900
H278        H  0.82073031  0.98255389  0.26381724     0.16900
C279        C  0.86468875  0.96660637  0.99392499     0.29100
C280        C  0.89628314  0.96655716  0.99453633    -0.24800
C281        C  0.92835416  0.99756552  0.33526741    -0.24000
C282        C  0.92802185  0.02895462  0.34245633     0.40600
C283        C  0.89634235  0.02878898  0.34216934    -0.26500
O284        O  0.83393433  0.93585877  0.98664180    -0.58400
H285        H  0.89554275  0.94208315  0.98891528     0.16200
O286        O  0.95829915  0.05989450  0.35084398    -0.59800
H287        H  0.89661234  0.05305935  0.34768639     0.14700
H288        H  0.74596522  0.95692958  0.25403132     0.46500
H289        H  0.82472240  0.92617043  0.01708313     0.41900
H290        H  0.96533287  0.07243901  0.32143584     0.45300
H291        H  0.82716502  0.99539134  0.09576446     0.36800
C292        C  0.73639231  0.00295537  0.32862621     0.80400
N293        N  0.72119483  0.00341175  0.62237508    -0.77900
C294        C  0.69128005  0.00482112  0.62198434     0.82800
N295        N  0.67630080  0.00555288  0.66152352    -0.77800
C296        C  0.69128019  0.00521289  0.36791172     0.82900
N297        N  0.72127974  0.00400997  0.36795079    -0.79600
O298        O  0.68953367  0.00765355  0.44806727    -0.57600
C299        C  0.67498103  0.00511635  0.57904201     0.75000
O300        O  0.61691030  0.04184050  0.51149290    -0.58800
C301        C  0.67481886  0.00535867  0.41068675     0.75000
C302        C  0.57908316  0.93593985  0.49239292     0.77400
Cd303      Cd  0.64203744  0.00430744  0.49481222     1.37500
O304        O  0.68752672  0.00313340  0.54168290    -0.57600
O305        O  0.60825410  0.94055052  0.50539400    -0.57300
C306        C  0.64289144  0.07003681  0.49690955     0.77300
O307        O  0.57869435  0.96330792  0.48074100    -0.58800
O308        O  0.64757454  0.00720138  0.57756740    -0.57300
O309        O  0.64510642  0.00287929  0.41203799    -0.57300
O310        O  0.66797845  0.06756499  0.48097827    -0.56400
C311        C  0.99467808  0.73873768  0.68387689     0.80400
N312        N  0.99554551  0.72365647  0.39025229    -0.77900
C313        C  0.99897701  0.69489541  0.39101822     0.82800
N314        N  0.00135557  0.68088559  0.68504818    -0.77800
C315        C  0.00059577  0.69567364  0.64513810     0.82900
N316        N  0.99725518  0.72447716  0.64475279    -0.79600
O317        O  0.99520944  0.68991198  0.47120964    -0.57600
C318        C  0.00152747  0.67961965  0.60254913     0.75000
O319        O  0.95913814  0.58341672  0.53573076    -0.58800
C320        C  0.99930576  0.67860651  0.43410284     0.75000
C321        C  0.06356697  0.64526894  0.50971900     0.77400
Cd322      Cd  0.99928183  0.64611691  0.51839240     1.37500
O323        O  0.00119841  0.69301101  0.56492977    -0.57600
O324        O  0.06293674  0.67334420  0.51363780    -0.56400
C325        C  0.93203717  0.58214180  0.51986514     0.77300
O326        O  0.03418621  0.61716496  0.51052387    -0.58800
O327        O  0.00185011  0.65128905  0.60154129    -0.57300
O328        O  0.00349864  0.65242809  0.43591582    -0.57300
O329        O  0.93616383  0.61034547  0.50319893    -0.56400
C330        C  0.62987484  0.33847569  0.52376914     0.80400
N331        N  0.62737159  0.30669400  0.52286862    -0.77900
C332        C  0.65635161  0.30381258  0.52557386     0.82800
N333        N  0.68818680  0.33340172  0.52907159    -0.77800
C334        C  0.69128333  0.36553535  0.53001008     0.82900
N335        N  0.66187941  0.36781907  0.52741982    -0.79600
C336        C  0.33255486  0.63615618  0.47772376     0.80400
N337        N  0.30069296  0.63351582  0.47905027    -0.77900
C338        C  0.29796726  0.66235076  0.48478450     0.82800
N339        N  0.32739267  0.69420167  0.48930034    -0.77800
C340        C  0.35947773  0.69731318  0.48712266     0.82900
N341        N  0.36178169  0.66821013  0.48129290    -0.79600
C342        C  0.25353090  0.25556479  0.64425168     0.80400
N343        N  0.26999366  0.27137103  0.34957932    -0.77900
C344        C  0.29996417  0.30288493  0.34864774     0.82800
N345        N  0.31377419  0.31902100  0.64190602    -0.77800
C346        C  0.29763684  0.30339753  0.60288886     0.82900
N347        N  0.26754186  0.27170227  0.60413872    -0.79600
O348        O  0.29964419  0.30611855  0.52256393    -0.57600
C349        C  0.31646927  0.31957354  0.39106537     0.75000
O350        O  0.37151344  0.41498305  0.46179054    -0.58800
C351        C  0.31333958  0.32026887  0.55966366     0.75000
C352        C  0.41023246  0.35038182  0.48572818     0.77400
Cd353      Cd  0.34658717  0.35182786  0.47549917     1.37500
O354        O  0.30373009  0.30457653  0.42841028    -0.57600
O355        O  0.38068107  0.32280499  0.48251904    -0.56400
C356        C  0.34404323  0.41513426  0.47299230     0.77300
O357        O  0.41050104  0.37902436  0.48302782    -0.58800
O358        O  0.34365878  0.34958919  0.39234888    -0.57300
O359        O  0.34167968  0.34943404  0.55777214    -0.57300
O360        O  0.31799585  0.38602901  0.48479496    -0.56400
C361        C  0.96165753  0.99681253  0.66826533     0.80400
N362        N  0.99307424  0.02713429  0.66635702    -0.77900
C363        C  0.02356358  0.02686247  0.66576364     0.82800
N364        N  0.02236149  0.99570052  0.66732186    -0.77800
C365        C  0.99139052  0.96501264  0.66932938     0.82900
N366        N  0.96103926  0.96575772  0.66956645    -0.79600
C367        C  0.12071250  0.09318141  0.64954739    -0.27400
C368        C  0.12168071  0.12464938  0.32476138     0.02200
C369        C  0.09057903  0.12399711  0.33631066     0.30300
C370        C  0.05890090  0.09204037  0.33858134    -0.19200
C371        C  0.05771103  0.06028153  0.66340922    -0.28600
C372        C  0.08921599  0.06117689  0.65235758     0.44300
C373        C  0.15541970  0.15801655  0.32116918     0.05500
O374        O  0.09072361  0.15459608  0.34365756    -0.57200
H375        H  0.03527861  0.09229633  0.34710147     0.18400
O376        O  0.08975788  0.03107976  0.64408213    -0.63900
H377        H  0.14457598  0.09339662  0.64090738     0.16900
C378        C  0.16946617  0.18005674  0.35848299     0.29100
C379        C  0.20127320  0.21151697  0.35442094    -0.24800
C380        C  0.22001382  0.22164263  0.64676908    -0.24000
C381        C  0.20621744  0.19910346  0.60955327     0.40600
C382        C  0.17423791  0.16753884  0.61369924    -0.26500
O383        O  0.15249999  0.17090710  0.39929560    -0.58400
H384        H  0.21120041  0.22813017  0.38366193     0.16200
O385        O  0.22421024  0.20694881  0.56953811    -0.59800
H386        H  0.16393104  0.15045072  0.58491232     0.14700
H387        H  0.08611893  0.02744955  0.61117912     0.46500
H388        H  0.16004857  0.15569140  0.41412082     0.41900
H389        H  0.21356228  0.21737448  0.55014091     0.45300
H390        H  0.08623867  0.15464719  0.37636044     0.36800
C391        C  0.36773259  0.57366538  0.48026391    -0.27400
C392        C  0.33769723  0.54192314  0.46944934     0.02200
C393        C  0.30625390  0.54133814  0.46038769     0.30300
C394        C  0.30513509  0.57223756  0.46247775    -0.19200
C395        C  0.33511590  0.60417525  0.47380528    -0.28600
C396        C  0.36665306  0.60456224  0.48282072     0.44300
C397        C  0.33919560  0.50938682  0.46947544     0.05500
O398        O  0.27639746  0.51062944  0.44976805    -0.57200
H399        H  0.28056912  0.57103328  0.45538281     0.18400
O400        O  0.39647290  0.63470488  0.49510929    -0.63900
H401        H  0.39196493  0.57432657  0.48797916     0.16900
C402        C  0.36380064  0.50645830  0.44278481     0.29100
C403        C  0.36545617  0.47578379  0.44457093    -0.24800
C404        C  0.34239364  0.44753670  0.47230906    -0.24000
C405        C  0.31787464  0.45061568  0.49912725     0.40600
C406        C  0.31641721  0.48134437  0.49751857    -0.26500
O407        O  0.38610928  0.53331743  0.41460224    -0.58400
H408        H  0.38443084  0.47388469  0.42365732     0.16200
O409        O  0.29556296  0.42400168  0.52760136    -0.59800
H410        H  0.29777509  0.48351139  0.51880669     0.14700
H411        H  0.39560305  0.63495970  0.52846528     0.46500
H412        H  0.37332863  0.52887730  0.38574620     0.41900
H413        H  0.30871432  0.42813370  0.55610573     0.45300
H414        H  0.27725760  0.50875108  0.41660874     0.36800
C415        C  0.54036328  0.32036164  0.48702297    -0.27400
C416        C  0.53770287  0.34656911  0.50957021     0.02200
C417        C  0.56555533  0.37016869  0.53702619     0.30300
C418        C  0.59562505  0.36747292  0.54110048    -0.19200
C419        C  0.59814872  0.34112050  0.51864734    -0.28600
C420        C  0.57017474  0.31751644  0.49131973     0.44300
C421        C  0.50530621  0.34822047  0.50454827     0.05500
O422        O  0.56271385  0.39453327  0.56195713    -0.57200
H423        H  0.61668405  0.38555496  0.56268949     0.18400
O424        O  0.57182656  0.29185153  0.46799990    -0.63900
H425        H  0.51927662  0.30213373  0.46557153     0.16900
C426        C  0.50642135  0.37941194  0.49145635     0.29100
C427        C  0.47530564  0.37987184  0.48620806    -0.24800
C428        C  0.44266299  0.34922920  0.49239910    -0.24000
C429        C  0.44156246  0.31788236  0.50490322     0.40600
C430        C  0.47268669  0.31762352  0.51095107    -0.26500
O431        O  0.53769575  0.40934395  0.48238801    -0.58400
H432        H  0.47677224  0.40415973  0.47620755     0.16200
O433        O  0.41029342  0.28727304  0.51117967    -0.59800
H434        H  0.47133539  0.29334612  0.52075732     0.14700
H435        H  0.58340926  0.30298864  0.43901176     0.46500
H436        H  0.54235006  0.40798024  0.45004266     0.41900
H437        H  0.40451477  0.28688214  0.54351123     0.45300
H438        H  0.58112207  0.41768995  0.55019403     0.36800
C439        C  0.13165619  0.61716788  0.50416723    -0.27400
C440        C  0.16228532  0.64955338  0.49678465     0.02200
C441        C  0.16010143  0.67993245  0.49177616     0.30300
C442        C  0.12772071  0.67791311  0.49556273    -0.19200
C443        C  0.09703026  0.64578023  0.50438267    -0.28600
C444        C  0.09913740  0.61509295  0.50813174     0.44300
C445        C  0.19661665  0.65174726  0.49468834     0.05500
O446        O  0.18942050  0.71152543  0.48167483    -0.57200
H447        H  0.12672225  0.70171146  0.49152704     0.18400
O448        O  0.06977757  0.58303784  0.51586440    -0.63900
H449        H  0.13308595  0.59356550  0.50768085     0.16900
C450        C  0.22292803  0.67187832  0.52605956     0.29100
C451        C  0.25610516  0.67572656  0.52189229    -0.24800
C452        C  0.26318279  0.65880809  0.48743200    -0.24000
C453        C  0.23661832  0.63793681  0.45667132     0.40600
C454        C  0.20358587  0.63465550  0.46032323    -0.26500
O455        O  0.21637060  0.68779075  0.56097990    -0.58400
H456        H  0.27615308  0.69138615  0.54618802     0.16200
O457        O  0.24326866  0.62218115  0.42162801    -0.59800
H458        H  0.18358195  0.61930078  0.43583551     0.14700
H459        H  0.06755011  0.58049120  0.54910060     0.46500
H460        H  0.20757244  0.67027347  0.58588477     0.41900
H461        H  0.23414984  0.59763548  0.43169400     0.45300
H462        H  0.19499863  0.72546888  0.50955719     0.36800
C463        C  0.76523837  0.46104328  0.53195231    -0.27400
C464        C  0.79460240  0.45751413  0.52503217     0.02200
C465        C  0.78990959  0.42382321  0.52085574     0.30300
C466        C  0.75635650  0.39433133  0.52382515    -0.19200
C467        C  0.72666775  0.39760740  0.53017797    -0.28600
C468        C  0.73152431  0.43155911  0.53455910     0.44300
C469        C  0.83004560  0.48907860  0.52264451     0.05500
O470        O  0.81791752  0.41942979  0.51289583    -0.57200
H471        H  0.75367161  0.36880282  0.52002722     0.18400
O472        O  0.70366578  0.43646992  0.54086081    -0.63900
H473        H  0.76849132  0.48683177  0.53561987     0.16900
C474        C  0.83766793  0.51660076  0.49213764     0.29100
C475        C  0.87096091  0.54666933  0.49158265    -0.24800
C476        C  0.89733968  0.54967343  0.52070110    -0.24000
C477        C  0.88984597  0.52181965  0.55069006     0.40600
C478        C  0.85643064  0.49188980  0.55148908    -0.26500
O479        O  0.81282277  0.51429668  0.46253614    -0.58400
H480        H  0.87621955  0.56760507  0.46798957     0.16200
O481        O  0.91471161  0.52375587  0.57995313    -0.59800
H482        H  0.85090720  0.47102285  0.57533426     0.14700
H483        H  0.70091784  0.43661651  0.57397592     0.46500
H484        H  0.81351509  0.50037358  0.43704571     0.41900
H485        H  0.91153483  0.53406187  0.60776008     0.45300
H486        H  0.82111055  0.42132147  0.47973588     0.36800
C487        C  0.99034573  0.81908116  0.38612113    -0.27400
C488        C  0.98819996  0.83271698  0.67762834     0.02200
C489        C  0.98695875  0.81493571  0.63822293     0.30300
C490        C  0.98870707  0.78431003  0.64089420    -0.19200
C491        C  0.99130812  0.77056099  0.68275256    -0.28600
C492        C  0.99142488  0.78806496  0.38905487     0.44300
C493        C  0.98868151  0.86626341  0.67530386     0.05500
O494        O  0.98570658  0.82825817  0.59682521    -0.57200
H495        H  0.98837853  0.77157467  0.60982157     0.18400
O496        O  0.99343802  0.77580920  0.43086300    -0.63900
H497        H  0.99127640  0.83266793  0.41669268     0.16900
C498        C  0.95842273  0.86740158  0.66442023     0.29100
C499        C  0.95952198  0.89957981  0.66299694    -0.24800
C500        C  0.99087452  0.93114692  0.67136181    -0.24000
C501        C  0.02127893  0.92963738  0.34857265     0.40600
C502        C  0.01986364  0.89739857  0.35065465    -0.26500
O503        O  0.92747512  0.83707100  0.65624897    -0.58400
H504        H  0.93577753  0.89974996  0.65487674     0.16200
O505        O  0.05269179  0.95942196  0.35681497    -0.59800
H506        H  0.04335743  0.89673662  0.35886160     0.14700
H507        H  0.96879774  0.76095542  0.44104652     0.46500
H508        H  0.92489800  0.83609795  0.62304276     0.41900
H509        H  0.05276819  0.96325347  0.38966205     0.45300
H510        H  0.96136838  0.81303581  0.58617740     0.36800
C511        C  0.51804987  0.83720631  0.50139211    -0.27400
C512        C  0.48586062  0.83364377  0.48900002     0.02200
C513        C  0.48459213  0.86382019  0.47699667     0.30300
C514        C  0.51502402  0.89687183  0.47827071    -0.19200
C515        C  0.54728068  0.90054435  0.49094074    -0.28600
C516        C  0.54859460  0.87014183  0.50202929     0.44300
C517        C  0.45374178  0.79844812  0.48918900     0.05500
O518        O  0.45374021  0.86129114  0.46374412    -0.57200
H519        H  0.51330848  0.91969275  0.46923450     0.18400
O520        O  0.57944418  0.87220401  0.51419032    -0.63900
H521        H  0.51949612  0.81435558  0.51113219     0.16900
C522        C  0.45261604  0.77034689  0.46595980     0.29100
C523        C  0.42189507  0.73753787  0.46620365    -0.24800
C524        C  0.39181505  0.73206642  0.48923521    -0.24000
C525        C  0.39314461  0.76003880  0.51314580     0.40600
C526        C  0.42392575  0.79283756  0.51301277    -0.26500
O527        O  0.48080086  0.77519636  0.44096592    -0.58400
H528        H  0.42141412  0.71651908  0.44729308     0.16200
O529        O  0.36467964  0.75563922  0.53701442    -0.59800
H530        H  0.42457637  0.81397381  0.53183056     0.14700
H531        H  0.58924854  0.86897246  0.48585784     0.46500
H532        H  0.49062605  0.76271184  0.45778155     0.41900
H533        H  0.36713350  0.74778107  0.56747419     0.45300
H534        H  0.45211265  0.85657444  0.43099905     0.36800
C535        C  0.67170872  0.16628065  0.48077213    -0.27400
C536        C  0.64810103  0.16942933  0.50897272     0.02200
C537        C  0.62194657  0.13943759  0.53174006     0.30300
C538        C  0.62005890  0.10715876  0.52667950    -0.19200
C539        C  0.64419739  0.10410228  0.49931501    -0.28600
C540        C  0.66988981  0.13402491  0.47572616     0.44300
C541        C  0.65046430  0.20386873  0.51376027     0.05500
O542        O  0.59836051  0.14147041  0.55955240    -0.57200
H543        H  0.60004085  0.08459593  0.54504367     0.18400
O544        O  0.69339523  0.13215276  0.44760004    -0.63900
H545        H  0.69143531  0.18886653  0.46214414     0.16900
C546        C  0.68197071  0.23398468  0.52614988     0.29100
C547        C  0.68329197  0.26607240  0.53067002    -0.24800
C548        C  0.65361858  0.26901444  0.52228818    -0.24000
C549        C  0.62214345  0.23868745  0.50950108     0.40600
C550        C  0.62082134  0.20663366  0.50555063    -0.26500
O551        O  0.71128135  0.23204860  0.53541894    -0.58400
H552        H  0.70777886  0.28871774  0.54070745     0.16200
O553        O  0.59246062  0.23988121  0.50024482    -0.59800
H554        H  0.59653184  0.18384013  0.49525487     0.14700
H555        H  0.68218012  0.12678501  0.41754719     0.46500
H556        H  0.72717870  0.24338333  0.50930735     0.41900
H557        H  0.59259450  0.24280261  0.46708074     0.45300
H558        H  0.61034171  0.14911665  0.58898344     0.36800
C559        C  0.81190703  0.99003813  0.62670295    -0.27400
C560        C  0.83159142  0.99870215  0.33307714     0.02200
C561        C  0.81990826  0.00856005  0.37111420     0.30300
C562        C  0.78899184  0.00978647  0.36911478    -0.19200
C563        C  0.76914027  0.00134178  0.32933876    -0.28600
C564        C  0.78094479  0.99123062  0.62456946     0.44300
C565        C  0.86458869  0.99788889  0.33423911     0.05500
O566        O  0.83856543  0.01702652  0.41045103    -0.57200
H567        H  0.78072604  0.01762000  0.39889815     0.18400
O568        O  0.76254285  0.98240179  0.58503574    -0.63900
H569        H  0.82072027  0.98251732  0.59712198     0.16900
C570        C  0.86464773  0.96659117  0.32719256     0.29100
C571        C  0.89623935  0.96653795  0.32782649    -0.24800
C572        C  0.92840557  0.99761848  0.66848621    -0.24000
C573        C  0.92807617  0.02901167  0.67565229     0.40600
C574        C  0.89639548  0.02884377  0.67538220    -0.26500
O575        O  0.83390109  0.93585710  0.31981570    -0.58400
H576        H  0.89550362  0.94207291  0.32214539     0.16200
O577        O  0.95835757  0.05995770  0.68400143    -0.59800
H578        H  0.89666658  0.05311658  0.68088177     0.14700
H579        H  0.74590112  0.95682806  0.58748210     0.46500
H580        H  0.82463510  0.92613800  0.35022889     0.41900
H581        H  0.96537705  0.07248317  0.65457985     0.45300
H582        H  0.82708906  0.99532162  0.42909334     0.36800
C583        C  0.73640997  0.00294082  0.66196029     0.80400
N584        N  0.72120495  0.00341282  0.95571433    -0.77900
C585        C  0.69128168  0.00480672  0.95531208     0.82800
N586        N  0.67630728  0.00556040  0.99484486    -0.77800
C587        C  0.69129357  0.00518066  0.70125810     0.82900
N588        N  0.72129350  0.00397798  0.70129070    -0.79600
O589        O  0.68953670  0.00761015  0.78141770    -0.57600
C590        C  0.67497323  0.00507518  0.91236616     0.75000
O591        O  0.61692003  0.04179652  0.84490781    -0.58800
C592        C  0.67482475  0.00531168  0.74403348     0.75000
C593        C  0.57903001  0.93592796  0.82572330     0.77400
Cd594      Cd  0.64202393  0.00426441  0.82814173     1.37500
O595        O  0.68750853  0.00306978  0.87500946    -0.57600
O596        O  0.60817201  0.94052502  0.83883365    -0.57300
C597        C  0.64287284  0.06998951  0.83026799     0.77300
O598        O  0.57868774  0.96329710  0.81394903    -0.58800
O599        O  0.64757122  0.00716769  0.91088801    -0.57300
O600        O  0.64510721  0.00282039  0.74537804    -0.57300
O601        O  0.66794263  0.06752000  0.81426886    -0.56400
C602        C  0.99472031  0.73873395  0.01721152     0.80400
N603        N  0.99545080  0.72364049  0.72360647    -0.77900
C604        C  0.99884658  0.69485849  0.72436325     0.82800
N605        N  0.00143506  0.68090267  0.01836171    -0.77800
C606        C  0.00064360  0.69568044  0.97845666     0.82900
N607        N  0.99728452  0.72447282  0.97808230    -0.79600
O608        O  0.99513668  0.68989785  0.80455682    -0.57600
C609        C  0.00153158  0.67961231  0.93586187     0.75000
O610        O  0.95903536  0.58337478  0.86910688    -0.58800
C611        C  0.99917461  0.67856276  0.76743976     0.75000
C612        C  0.06346614  0.64525174  0.84294871     0.77400
Cd613      Cd  0.99918214  0.64607539  0.85170638     1.37500
O614        O  0.00106846  0.69294212  0.89825097    -0.57600
O615        O  0.06282955  0.67332425  0.84685232    -0.56400
C616        C  0.93193120  0.58209853  0.85324991     0.77300
O617        O  0.03409044  0.61714195  0.84377784    -0.58800
O618        O  0.00193718  0.65132487  0.93484243    -0.57300
O619        O  0.00331713  0.65235268  0.76923409    -0.57300
O620        O  0.93605622  0.61030103  0.83658226    -0.56400
C621        C  0.62976059  0.33838292  0.85700695     0.80400
N622        N  0.62725868  0.30660139  0.85617741    -0.77900
C623        C  0.65623824  0.30372247  0.85892659     0.82800
N624        N  0.68807494  0.33331678  0.86239558    -0.77800
C625        C  0.69117074  0.36545252  0.86326325     0.82900
N626        N  0.66176502  0.36773058  0.86063107    -0.79600
C627        C  0.33246869  0.63618385  0.81093630     0.80400
N628        N  0.30060590  0.63353895  0.81227509    -0.77900
C629        C  0.29787517  0.66236699  0.81804732     0.82800
N630        N  0.32729777  0.69421657  0.82259127    -0.77800
C631        C  0.35938468  0.69733364  0.82040515     0.82900
N632        N  0.36169327  0.66823655  0.81453594    -0.79600
C633        C  0.25357250  0.25548865  0.97751602     0.80400
N634        N  0.26998362  0.27147084  0.68290601    -0.77900
C635        C  0.29994034  0.30299626  0.68197972     0.82800
N636        N  0.31379030  0.31896637  0.97522911    -0.77800
C637        C  0.29765027  0.30337439  0.93619986     0.82900
N638        N  0.26756760  0.27166902  0.93742036    -0.79600
O639        O  0.29962069  0.30617317  0.85588234    -0.57600
C640        C  0.31643385  0.31968382  0.72440018     0.75000
O641        O  0.37147690  0.41505240  0.79516551    -0.58800
C642        C  0.31333293  0.32028989  0.89298950     0.75000
C643        C  0.41017421  0.35040152  0.81897102     0.77400
Cd644      Cd  0.34655204  0.35189710  0.80883770     1.37500
O645        O  0.30371068  0.30466191  0.76173822    -0.57600
O646        O  0.38062756  0.32284094  0.81559560    -0.56400
C647        C  0.34398778  0.41518744  0.80631219     0.77300
O648        O  0.41045241  0.37905655  0.81648000    -0.58800
O649        O  0.34360326  0.34971465  0.72569291    -0.57300
O650        O  0.34167200  0.34945645  0.89111539    -0.57300
O651        O  0.31793724  0.38607603  0.81808989    -0.56400
C652        C  0.96166000  0.99679410  0.00167523     0.80400
N653        N  0.99307660  0.02711605  0.99973430    -0.77900
C654        C  0.02356736  0.02684588  0.99915790     0.82800
N655        N  0.02236643  0.99568529  0.00076734    -0.77800
C656        C  0.99139718  0.96499787  0.00280479     0.82900
N657        N  0.96104403  0.96574039  0.00302181    -0.79600
C658        C  0.12071557  0.09313682  0.98284460    -0.27400
C659        C  0.12172689  0.12469538  0.65800705     0.02200
C660        C  0.09063532  0.12403229  0.66964946     0.30300
C661        C  0.05895525  0.09207696  0.67188090    -0.19200
C662        C  0.05771531  0.06026342  0.99673214    -0.28600
C663        C  0.08922054  0.06113742  0.98573935     0.44300
C664        C  0.15546656  0.15806299  0.65444484     0.05500
O665        O  0.09079101  0.15462164  0.67712903    -0.57200
H666        H  0.03534037  0.09232287  0.68047947     0.18400
O667        O  0.08976779  0.03102346  0.97761918    -0.63900
H668        H  0.14458016  0.09333576  0.97426142     0.16900
C669        C  0.16952725  0.18006260  0.69179248     0.29100
C670        C  0.20132683  0.21153225  0.68774883    -0.24800
C671        C  0.22005319  0.22156952  0.98000302    -0.24000
C672        C  0.20624496  0.19906302  0.94275699     0.40600
C673        C  0.17424901  0.16751025  0.94687331    -0.26500
O674        O  0.15258075  0.17086580  0.73261774    -0.58400
H675        H  0.21126199  0.22811484  0.71701593     0.16200
O676        O  0.22424173  0.20692749  0.90274290    -0.59800
H677        H  0.16393106  0.15044296  0.91806859     0.14700
H678        H  0.08602828  0.02726278  0.94474639     0.46500
H679        H  0.16014391  0.15564114  0.74738283     0.41900
H680        H  0.21361069  0.21738287  0.88336853     0.45300
H681        H  0.08629238  0.15460445  0.70983955     0.36800
C682        C  0.36763147  0.57368389  0.81349391    -0.27400
C683        C  0.33760151  0.54194962  0.80263925     0.02200
C684        C  0.30617069  0.54137528  0.79352505     0.30300
C685        C  0.30505629  0.57227695  0.79561602    -0.19200
C686        C  0.33503034  0.60420567  0.80699216    -0.28600
C687        C  0.36655740  0.60458331  0.81604541     0.44300
C688        C  0.33909364  0.50941102  0.80267973     0.05500
O689        O  0.27632243  0.51067536  0.78285420    -0.57200
H690        H  0.28049912  0.57108168  0.78848657     0.18400
O691        O  0.39637127  0.63471862  0.82836843    -0.63900
H692        H  0.39185439  0.57433615  0.82124451     0.16900
C693        C  0.36371523  0.50648582  0.77602254     0.29100
C694        C  0.36538608  0.47582101  0.77784809    -0.24800
C695        C  0.34231899  0.44757839  0.80558820    -0.24000
C696        C  0.31777223  0.45064775  0.83235881     0.40600
C697        C  0.31630253  0.48136934  0.83071511    -0.26500
O698        O  0.38602664  0.53334044  0.74783645    -0.58400
H699        H  0.38437658  0.47392569  0.75696335     0.16200
O700        O  0.29544591  0.42403202  0.86082071    -0.59800
H701        H  0.29764353  0.48353300  0.85197257     0.14700
H702        H  0.39547582  0.63496470  0.86172319     0.46500
H703        H  0.37327618  0.52885737  0.71894998     0.41900
H704        H  0.30857678  0.42817068  0.88934390     0.45300
H705        H  0.27725179  0.50877858  0.74970668     0.36800
C706        C  0.54023256  0.32022905  0.82025174    -0.27400
C707        C  0.53759445  0.34648006  0.84271794     0.02200
C708        C  0.56546128  0.37011044  0.87013246     0.30300
C709        C  0.59552674  0.36741137  0.87423151    -0.19200
C710        C  0.59803254  0.34102171  0.85185423    -0.28600
C711        C  0.57003915  0.31737645  0.82458202     0.44300
C712        C  0.50520660  0.34814672  0.83766981     0.05500
O713        O  0.56263674  0.39450939  0.89500770    -0.57200
H714        H  0.61659689  0.38552139  0.89578550     0.18400
O715        O  0.57166579  0.29166150  0.80135318    -0.63900
H716        H  0.51913302  0.30197201  0.79883907     0.16900
C717        C  0.50634170  0.37934640  0.82456511     0.29100
C718        C  0.47523960  0.37983712  0.81935947    -0.24800
C719        C  0.44258909  0.34921519  0.82559225    -0.24000
C720        C  0.44146430  0.31785593  0.83808953     0.40600
C721        C  0.47257659  0.31756693  0.84410274    -0.26500
O722        O  0.53762185  0.40925835  0.81544949    -0.58400
H723        H  0.47672089  0.40413143  0.80935647     0.16200
O724        O  0.41018258  0.28726932  0.84441838    -0.59800
H725        H  0.47120737  0.29328357  0.85392171     0.14700
H726        H  0.58312480  0.30270758  0.77227348     0.46500
H727        H  0.54226891  0.40784848  0.78311406     0.41900
H728        H  0.40443334  0.28690859  0.87675553     0.45300
H729        H  0.58106061  0.41765138  0.88322541     0.36800
C730        C  0.13156768  0.61717134  0.83749338    -0.27400
C731        C  0.16219433  0.64955733  0.83010576     0.02200
C732        C  0.16000580  0.67993134  0.82505634     0.30300
C733        C  0.12761995  0.67790493  0.82880112    -0.19200
C734        C  0.09693183  0.64577082  0.83762387    -0.28600
C735        C  0.09904539  0.61509013  0.84141958     0.44300
C736        C  0.19652369  0.65175033  0.82801027     0.05500
O737        O  0.18932433  0.71152384  0.81495038    -0.57200
H738        H  0.12661590  0.70169824  0.82473518     0.18400
O739        O  0.06968810  0.58303536  0.84916400    -0.63900
H740        H  0.13300159  0.59357300  0.84103724     0.16900
C741        C  0.22286011  0.67193102  0.85932842     0.29100
C742        C  0.25603665  0.67578267  0.85513992    -0.24800
C743        C  0.26308805  0.65881569  0.82071703    -0.24000
C744        C  0.23649427  0.63788597  0.79002102     0.40600
C745        C  0.20346390  0.63460429  0.79369008    -0.26500
O746        O  0.21632848  0.68788757  0.89421826    -0.58400
H747        H  0.27610499  0.69148324  0.87939208     0.16200
O748        O  0.24311138  0.62207062  0.75501993    -0.59800
H749        H  0.18343821  0.61920670  0.76924696     0.14700
H750        H  0.06745471  0.58050352  0.88240103     0.46500
H751        H  0.20748695  0.67037726  0.91913148     0.41900
H752        H  0.23398016  0.59753501  0.76514128     0.45300
H753        H  0.19488103  0.72548422  0.84281504     0.36800
C754        C  0.76511772  0.46097304  0.86510514    -0.27400
C755        C  0.79449649  0.45744546  0.85831821     0.02200
C756        C  0.78981144  0.42374977  0.85423988     0.30300
C757        C  0.75625584  0.39425570  0.85719205    -0.19200
C758        C  0.72655523  0.39753131  0.86342080    -0.28600
C759        C  0.73140193  0.43148799  0.86768080     0.44300
C760        C  0.82994288  0.48901741  0.85596150     0.05500
O761        O  0.81782978  0.41935161  0.84639259    -0.57200
H762        H  0.75357952  0.36872411  0.85348209     0.18400
O763        O  0.70353175  0.43640357  0.87382654    -0.63900
H764        H  0.76835864  0.48676255  0.86869214     0.16900
C765        C  0.83758045  0.51654432  0.82545304     0.29100
C766        C  0.87086938  0.54661842  0.82492899    -0.24800
C767        C  0.89723317  0.54962842  0.85407939    -0.24000
C768        C  0.88972649  0.52177570  0.88407598     0.40600
C769        C  0.85631361  0.49183816  0.88484494    -0.26500
O770        O  0.81275458  0.51424107  0.79581799    -0.58400
H771        H  0.87613791  0.56755370  0.80132997     0.16200
O772        O  0.91457620  0.52372090  0.91337520    -0.59800
H773        H  0.85078060  0.47097391  0.90869897     0.14700
H774        H  0.70077295  0.43665516  0.90692666     0.46500
H775        H  0.81345623  0.50031010  0.77034375     0.41900
H776        H  0.91136035  0.53400187  0.94117999     0.45300
H777        H  0.82106377  0.42122005  0.81323886     0.36800
C778        C  0.99033349  0.81911250  0.71949385    -0.27400
C779        C  0.98824771  0.83271895  0.01101588     0.02200
C780        C  0.98707638  0.81498716  0.97159197     0.30300
C781        C  0.98881645  0.78435571  0.97424346    -0.19200
C782        C  0.99134199  0.77055324  0.01609901    -0.28600
C783        C  0.99138666  0.78808183  0.72242444     0.44300
C784        C  0.98872083  0.86626273  0.00872426     0.05500
O785        O  0.98589915  0.82836241  0.93020102    -0.57200
H786        H  0.98854574  0.77166094  0.94315934     0.18400
O787        O  0.99336290  0.77580271  0.76423271    -0.63900
H788        H  0.99125131  0.83269208  0.75006672     0.16900
C789        C  0.95846953  0.86739965  0.99778906     0.29100
C790        C  0.95955487  0.89957150  0.99639812    -0.24800
C791        C  0.99088711  0.93113539  0.00484979    -0.24000
C792        C  0.02135982  0.92970400  0.68166170     0.40600
C793        C  0.01993628  0.89746298  0.68380456    -0.26500
O794        O  0.92754105  0.83707235  0.98953046    -0.58400
H795        H  0.93581793  0.89974090  0.98822630     0.16200
O796        O  0.05281296  0.95950255  0.68968109    -0.59800
H797        H  0.04345372  0.89680971  0.69188659     0.14700
H798        H  0.96871503  0.76096916  0.77439738     0.46500
H799        H  0.92503658  0.83611263  0.95631470     0.41900
H800        H  0.05303078  0.96340740  0.72252585     0.45300
H801        H  0.96157283  0.81317139  0.91949446     0.36800
C802        C  0.51794402  0.83721148  0.83479777    -0.27400
C803        C  0.48576280  0.83366414  0.82239942     0.02200
C804        C  0.48451151  0.86384718  0.81038015     0.30300
C805        C  0.51495812  0.89689064  0.81162658    -0.19200
C806        C  0.54720875  0.90054547  0.82429324    -0.28600
C807        C  0.54850055  0.87013609  0.83541094     0.44300
C808        C  0.45364174  0.79847129  0.82256364     0.05500
O809        O  0.45366435  0.86133193  0.79713394    -0.57200
H810        H  0.51325914  0.91971827  0.80257457     0.18400
O811        O  0.57934365  0.87217989  0.84756139    -0.63900
H812        H  0.51937633  0.81435508  0.84454954     0.16900
C813        C  0.45252351  0.77038370  0.79930893     0.29100
C814        C  0.42180578  0.73757369  0.79952636    -0.24800
C815        C  0.39171918  0.73208729  0.82255361    -0.24000
C816        C  0.39303963  0.76004629  0.84648902     0.40600
C817        C  0.42381949  0.79284754  0.84638313    -0.26500
O818        O  0.48071370  0.77524936  0.77431360    -0.58400
H819        H  0.42133239  0.71656669  0.78059623     0.16200
O820        O  0.36456651  0.75563133  0.87035246    -0.59800
H821        H  0.42446415  0.81397443  0.86521671     0.14700
H822        H  0.58914630  0.86895777  0.81922113     0.46500
H823        H  0.49055022  0.76277526  0.79112888     0.41900
H824        H  0.36703165  0.74779306  0.90081987     0.45300
H825        H  0.45202217  0.85659596  0.76439347     0.36800
C826        C  0.67162837  0.16621963  0.81413776    -0.27400
C827        C  0.64800880  0.16934689  0.84234196     0.02200
C828        C  0.62186428  0.13934373  0.86510053     0.30300
C829        C  0.62000691  0.10707932  0.86004248    -0.19200
C830        C  0.64416038  0.10404562  0.83268071    -0.28600
C831        C  0.66983718  0.13397672  0.80909032     0.44300
C832        C  0.65035856  0.20377879  0.84715393     0.05500
O833        O  0.59825776  0.14135086  0.89290145    -0.57200
H834        H  0.59999681  0.08450869  0.87840320     0.18400
O835        O  0.69335611  0.13212653  0.78096597    -0.63900
H836        H  0.69134504  0.18881301  0.79551126     0.16900
C837        C  0.68186519  0.23389992  0.85953089     0.29100
C838        C  0.68318218  0.26598575  0.86405067    -0.24800
C839        C  0.65350159  0.26891944  0.85569121    -0.24000
C840        C  0.62201728  0.23858036  0.84295444     0.40600
C841        C  0.62070373  0.20653159  0.83898816    -0.26500
O842        O  0.71118182  0.23197101  0.86878528    -0.58400
H843        H  0.70767290  0.28863742  0.87406323     0.16200
O844        O  0.59231497  0.23975586  0.83376864    -0.59800
H845        H  0.59641039  0.18373280  0.82871450     0.14700
H846        H  0.68215802  0.12678797  0.75090274     0.46500
H847        H  0.72707474  0.24331156  0.84267141     0.41900
H848        H  0.59236769  0.24259120  0.80059687     0.45300
H849        H  0.61020396  0.14893547  0.92236173     0.36800
C850        C  0.81192713  0.99005167  0.96008505    -0.27400
C851        C  0.83163719  0.99874167  0.66635044     0.02200
C852        C  0.81997390  0.00862112  0.70438688     0.30300
C853        C  0.78904580  0.00982703  0.70241018    -0.19200
C854        C  0.76916167  0.00133571  0.66265932    -0.28600
C855        C  0.78098105  0.99127427  0.95792931     0.44300
C856        C  0.86463865  0.99793679  0.66749161     0.05500
O857        O  0.83865856  0.01712312  0.74370279    -0.57200
H858        H  0.78079609  0.01768134  0.73218936     0.18400
O859        O  0.76261033  0.98248999  0.91837204    -0.63900
H860        H  0.82074821  0.98253684  0.93050606     0.16900
C861        C  0.86469597  0.96663581  0.66046821     0.29100
C862        C  0.89628813  0.96658519  0.66108524    -0.24800
C863        C  0.92840563  0.99759899  0.00188298    -0.24000
C864        C  0.92807844  0.02899978  0.00899169     0.40600
C865        C  0.89639655  0.02882998  0.00873049    -0.26500
O866        O  0.83394667  0.93589527  0.65313087    -0.58400
H867        H  0.89555039  0.94211706  0.65542301     0.16200
O868        O  0.95836459  0.05995809  0.01727279    -0.59800
H869        H  0.89667039  0.05310880  0.01418750     0.14700
H870        H  0.74597577  0.95691174  0.92076203     0.46500
H871        H  0.82466744  0.92622399  0.68355671     0.41900
H872        H  0.96537418  0.07243566  0.98781877     0.45300
H873        H  0.82723143  0.99541743  0.76234620     0.36800
loop_ 
_geom_bond_atom_site_label_1 
_geom_bond_atom_site_label_2 
_geom_bond_distance 
_geom_bond_site_symmetry_2 
_ccdc_geom_bond_type 
C1            N6   1.360   1_556  A
C1          N584   1.360       .  A
C1          C272   1.489       .  S
N2            C3   1.359       .  A
N2          C292   1.360       .  A
C3            N4   1.358       .  A
C3            C8   1.468       .  S
N4          C296   1.358       .  A
C5            N6   1.357       .  A
C5          N586   1.358   1_554  A
C5           C10   1.467       .  S
O7           C10   1.266       .  A
O7          Cd12   2.463       .  S
C8           O17   1.265       .  A
C8           O13   1.265       .  A
O9           C15   1.267       .  A
O9          Cd12   2.481       .  S
C10          O18   1.265       .  A
C11         C224   1.485       .  S
C11          O16   1.267       .  A
C11          O14   1.263       .  A
Cd12         O19   2.461       .  S
Cd12         O18   2.466       .  S
Cd12         O17   2.468       .  S
Cd12         O13   2.471       .  S
Cd12         O16   2.488   1_545  S
Cd12         O14   2.452   1_545  S
C15         C248   1.484       .  S
C15          O19   1.264       .  A
C20          N25   1.361       .  A
C20         N312   1.360       .  A
C20         C200   1.492       .  S
N21          C22   1.358       .  A
N21         C602   1.360       .  A
C22         N605   1.358   1_655  A
C22          C29   1.467       .  S
N23          C24   1.357       .  A
N23         C313   1.358   1_455  A
C24          N25   1.358   1_455  A
C24          C27   1.468       .  S
O26          C29   1.266       .  A
O26         Cd31   2.463       .  S
C27          O36   1.264       .  A
C27          O32   1.263       .  A
O28          C34   1.264       .  A
O28         Cd31   2.471       .  S
C29          O37   1.265   1_655  A
C30         C152   1.480       .  S
C30          O35   1.265       .  A
C30          O33   1.265       .  A
Cd31         O38   2.460       .  S
Cd31         O37   2.460   1_655  S
Cd31         O36   2.480   1_655  S
Cd31         O32   2.473   1_655  S
Cd31         O35   2.473   1_655  S
Cd31         O33   2.444   1_655  S
C34         C185   1.479       .  S
C34          O38   1.264       .  A
C39          N40   1.356       .  A
C39          N44   1.358       .  A
C39         C128   1.477       .  S
N40          C41   1.356       .  A
C41          N42   1.358       .  A
C41         C257   1.489       .  S
N42          C43   1.360       .  A
C43          N44   1.359       .  A
C43         C176   1.489       .  S
C45          N46   1.357       .  A
C45          N50   1.357       .  A
C45         C104   1.484       .  S
N46          C47   1.356       .  A
C47          N48   1.359       .  A
C47         C161   1.470       .  S
N48          C49   1.359       .  A
C49          N50   1.357       .  A
C49         C233   1.480       .  S
C51          N56   1.360       .  A
C51         N343   1.356       .  A
C51          C89   1.484       .  S
N52          C53   1.353       .  A
N52         C633   1.356   1_554  A
C53         N636   1.356   1_554  A
C53          C58   1.462       .  S
N54          C55   1.359       .  A
N54         C344   1.356       .  A
C55          N56   1.360       .  A
C55          C60   1.465       .  S
O57          C60   1.266       .  A
O57         Cd62   2.461       .  S
C58          O67   1.263       .  A
C58          O63   1.263       .  A
O59          C65   1.266       .  A
O59         Cd62   2.461       .  S
C60          O68   1.266       .  A
C61         C137   1.477       .  S
C61          O66   1.265       .  A
C61          O64   1.263       .  A
Cd62         O69   2.437       .  S
Cd62         O68   2.450       .  S
Cd62         O67   2.473       .  S
Cd62         O63   2.442       .  S
Cd62         O66   2.462       .  S
Cd62         O64   2.439       .  S
C65         C113   1.475       .  S
C65          O69   1.265       .  A
C70          N71   1.359   1_565  A
C70          N75   1.363       .  A
C70         C281   1.492       .  S
N71          C72   1.358   1_655  A
C72          N73   1.355   1_545  A
C72          C80   1.487       .  S
N73          C74   1.357   1_455  A
C74          N75   1.362       .  A
C74         C209   1.490       .  S
C76          C81   1.398       .  A
C76         C368   1.400       .  A
C76          H86   1.084       .  S
C77          C82   1.478       .  S
C77          C78   1.407   1_556  A
C77         C658   1.400       .  A
C78          C79   1.400       .  A
C78          O83   1.373       .  S
C79         C662   1.407   1_554  A
C79          H84   1.083       .  S
C80          C81   1.415       .  A
C80         C370   1.407       .  A
C81          O85   1.371       .  S
C82          C87   1.405   1_556  A
C82         C673   1.404       .  A
O83          H99   0.992       .  S
O85          H96   0.992       .  S
C87          C88   1.395       .  A
C87          O92   1.372       .  S
C88         C671   1.408   1_554  A
C88          H93   1.083       .  S
C89          C90   1.412       .  A
C89         C379   1.408       .  A
C90          C91   1.402       .  A
C90          O94   1.372       .  S
C91         C373   1.404       .  A
C91          H95   1.084       .  S
O92          H97   0.992       .  S
O94          H98   0.992       .  S
C100        C101   1.400       .  A
C100        C105   1.397       .  A
C100        H110   1.084       .  S
C101        C106   1.477       .  S
C101        C102   1.406       .  A
C102        C103   1.397       .  A
C102        O107   1.372       .  S
C103        C104   1.408       .  A
C103        H108   1.083       .  S
C104        C105   1.414       .  A
C105        O109   1.371       .  S
C106        C111   1.408       .  A
C106        C115   1.402       .  A
O107        H123   0.992       .  S
O109        H120   0.992       .  S
C111        C112   1.399       .  A
C111        O116   1.372       .  S
C112        C113   1.404       .  A
C112        H117   1.084       .  S
C113        C114   1.410       .  A
C114        C115   1.396       .  A
C114        O118   1.372       .  S
C115        H119   1.084       .  S
O116        H121   0.992       .  S
O118        H122   0.992       .  S
C124        C125   1.402       .  A
C124        C129   1.395       .  A
C124        H134   1.084       .  S
C125        C130   1.482       .  S
C125        C126   1.410       .  A
C126        C127   1.402       .  A
C126        O131   1.373       .  S
C127        C128   1.404       .  A
C127        H132   1.084       .  S
C128        C129   1.410       .  A
C129        O133   1.371       .  S
C130        C135   1.409       .  A
C130        C139   1.403       .  A
O131        H147   0.992       .  S
O133        H144   0.992       .  S
C135        C136   1.398       .  A
C135        O140   1.371       .  S
C136        C137   1.404       .  A
C136        H141   1.083       .  S
C137        C138   1.411       .  A
C138        C139   1.397       .  A
C138        O142   1.372       .  S
C139        H143   1.084       .  S
O140        H145   0.992       .  S
O142        H146   0.992       .  S
C148        C149   1.402       .  A
C148        C153   1.402       .  A
C148        H158   1.084       .  S
C149        C154   1.476       .  S
C149        C150   1.405       .  A
C150        C151   1.396       .  A
C150        O155   1.373       .  S
C151        C152   1.405       .  A
C151        H156   1.083       .  S
C152        C153   1.413       .  A
C153        O157   1.372       .  S
C154        C159   1.408       .  A
C154        C163   1.402       .  A
O155        H171   0.992       .  S
O157        H168   0.992       .  S
C159        C160   1.397       .  A
C159        O164   1.372       .  S
C160        C161   1.401       .  A
C160        H165   1.084       .  S
C161        C162   1.409       .  A
C162        C163   1.400       .  A
C162        O166   1.372       .  S
C163        H167   1.084       .  S
O164        H169   0.992       .  S
O166        H170   0.992       .  S
C172        C173   1.403       .  A
C172        C177   1.401       .  A
C172        H182   1.084       .  S
C173        C178   1.482       .  S
C173        C174   1.406       .  A
C174        C175   1.397       .  A
C174        O179   1.372       .  S
C175        C176   1.408       .  A
C175        H180   1.083       .  S
C176        C177   1.415       .  A
C177        O181   1.371       .  S
C178        C183   1.408       .  A
C178        C187   1.403       .  A
O179        H195   0.992       .  S
O181        H192   0.992       .  S
C183        C184   1.399       .  A
C183        O188   1.372       .  S
C184        C185   1.405       .  A
C184        H189   1.084       .  S
C185        C186   1.411       .  A
C186        C187   1.399       .  A
C186        O190   1.372       .  S
C187        H191   1.084       .  S
O188        H193   0.992       .  S
O190        H194   0.992       .  S
C196        C201   1.401       .  A
C196        C779   1.400       .  A
C196        H206   1.084       .  S
C197        C202   1.477       .  S
C197        C198   1.403       .  A
C197        C487   1.401       .  A
C198        C199   1.400       .  A
C198        O203   1.372       .  S
C199        C200   1.409       .  A
C199        H204   1.083       .  S
C200        C492   1.417       .  A
C201        C782   1.417       .  A
C201        O205   1.371       .  S
C202        C207   1.405       .  A
C202        C502   1.399   1_655  A
O203        H219   0.992       .  S
O205        H216   0.992       .  S
C207        C208   1.402       .  A
C207        O212   1.371       .  S
C208        C209   1.408       .  A
C208        H213   1.083       .  S
C209        C501   1.418   1_655  A
C210        C211   1.399       .  A
C210        C791   1.418   1_455  A
C210        O214   1.371       .  S
C211        C784   1.399   1_455  A
C211        H215   1.084       .  S
O212        H217   0.992       .  S
O214        H218   0.992       .  S
C220        C221   1.403       .  A
C220        C225   1.399       .  A
C220        H230   1.083       .  S
C221        C226   1.485       .  S
C221        C222   1.409       .  A
C222        C223   1.400       .  A
C222        O227   1.372       .  S
C223        C224   1.406       .  A
C223        H228   1.083       .  S
C224        C225   1.414       .  A
C225        O229   1.372       .  S
C226        C231   1.408       .  A
C226        C235   1.405       .  A
O227        H243   0.992       .  S
O229        H240   0.992       .  S
C231        C232   1.399       .  A
C231        O236   1.372       .  S
C232        C233   1.405       .  A
C232        H237   1.084       .  S
C233        C234   1.410       .  A
C234        C235   1.400       .  A
C234        O238   1.372       .  S
C235        H239   1.083       .  S
O236        H241   0.992       .  S
O238        H242   0.992       .  S
C244        C245   1.403       .  A
C244        C249   1.400       .  A
C244        H254   1.083       .  S
C245        C250   1.484       .  S
C245        C246   1.410       .  A
C246        C247   1.400       .  A
C246        O251   1.372       .  S
C247        C248   1.405       .  A
C247        H252   1.083       .  S
C248        C249   1.413       .  A
C249        O253   1.371       .  S
C250        C255   1.408       .  A
C250        C259   1.401       .  A
O251        H267   0.992       .  S
O253        H264   0.992       .  S
C255        C256   1.401       .  A
C255        O260   1.372       .  S
C256        C257   1.408       .  A
C256        H261   1.083       .  S
C257        C258   1.415       .  A
C258        C259   1.398       .  A
C258        O262   1.371       .  S
C259        H263   1.084       .  S
O260        H265   0.992       .  S
O262        H266   0.992       .  S
C268        C273   1.401       .  A
C268        C560   1.402       .  A
C268        H278   1.084       .  S
C269        C274   1.481   1_556  S
C269        C270   1.406   1_566  A
C269        C850   1.402       .  A
C270        C271   1.400       .  A
C270        O275   1.372       .  S
C271        C272   1.408   1_554  A
C271        H276   1.083       .  S
C272        C855   1.415   1_545  A
C273        C563   1.415   1_565  A
C273        O277   1.371       .  S
C274        C279   1.406   1_554  A
C274        C865   1.400   1_565  A
O275        H291   0.992   1_545  S
O277        H288   0.992       .  S
C279        C280   1.401       .  A
C279        O284   1.372       .  S
C280        C863   1.408   1_556  A
C280        H285   1.083       .  S
C281        C282   1.417   1_565  A
C281        C571   1.408       .  A
C282        C283   1.400       .  A
C282        O286   1.371       .  S
C283        C565   1.400   1_545  A
C283        H287   1.084       .  S
O284        H289   0.992   1_556  S
O286        H290   0.992       .  S
C292        N297   1.360       .  A
C292        C563   1.489       .  S
N293        C583   1.360       .  A
N293        C294   1.359       .  A
C294        N295   1.358       .  A
C294        C299   1.468       .  S
N295        C587   1.358       .  A
C296        N297   1.357       .  A
C296        C301   1.467       .  S
O298        C301   1.266       .  A
O298       Cd303   2.463       .  S
C299        O308   1.265       .  A
C299        O304   1.265       .  A
O300        C306   1.267       .  A
O300       Cd303   2.480       .  S
C301        O309   1.265       .  A
C302        C515   1.485       .  S
C302        O307   1.267       .  A
C302        O305   1.263       .  A
Cd303       O310   2.461       .  S
Cd303       O309   2.466       .  S
Cd303       O308   2.468       .  S
Cd303       O304   2.471       .  S
Cd303       O307   2.488   1_545  S
Cd303       O305   2.452   1_545  S
C306        C539   1.484       .  S
C306        O310   1.264       .  A
C311        N603   1.360       .  A
C311        N316   1.361       .  A
C311        C491   1.492       .  S
N312        C313   1.358       .  A
C313        C320   1.467       .  S
N314        C604   1.358   1_455  A
N314        C315   1.357       .  A
C315        N316   1.358   1_455  A
C315        C318   1.468       .  S
O317        C320   1.266       .  A
O317       Cd322   2.463       .  S
C318        O327   1.264       .  A
C318        O323   1.263       .  A
O319        C325   1.264       .  A
O319       Cd322   2.471       .  S
C320        O328   1.265   1_655  A
C321        C443   1.480       .  S
C321        O326   1.265       .  A
C321        O324   1.265       .  A
Cd322       O329   2.460       .  S
Cd322       O328   2.459   1_655  S
Cd322       O327   2.480   1_655  S
Cd322       O323   2.473   1_655  S
Cd322       O326   2.473   1_655  S
Cd322       O324   2.444   1_655  S
C325        C476   1.479       .  S
C325        O329   1.264       .  A
C330        N331   1.356       .  A
C330        N335   1.358       .  A
C330        C419   1.477       .  S
N331        C332   1.356       .  A
C332        N333   1.358       .  A
C332        C548   1.489       .  S
N333        C334   1.360       .  A
C334        N335   1.359       .  A
C334        C467   1.489       .  S
C336        N337   1.357       .  A
C336        N341   1.357       .  A
C336        C395   1.484       .  S
N337        C338   1.356       .  A
C338        N339   1.359       .  A
C338        C452   1.470       .  S
N339        C340   1.359       .  A
C340        N341   1.357       .  A
C340        C524   1.480       .  S
C342        N634   1.356       .  A
C342        N347   1.360       .  A
C342        C380   1.484       .  S
N343        C344   1.353       .  A
C344        C349   1.462       .  S
N345        C635   1.356       .  A
N345        C346   1.359       .  A
C346        N347   1.360       .  A
C346        C351   1.465       .  S
O348        C351   1.266       .  A
O348       Cd353   2.461       .  S
C349        O358   1.264       .  A
C349        O354   1.263       .  A
O350        C356   1.266       .  A
O350       Cd353   2.462       .  S
C351        O359   1.266       .  A
C352        C428   1.477       .  S
C352        O357   1.265       .  A
C352        O355   1.263       .  A
Cd353       O360   2.437       .  S
Cd353       O359   2.450       .  S
Cd353       O358   2.473       .  S
Cd353       O354   2.442       .  S
Cd353       O357   2.462       .  S
Cd353       O355   2.439       .  S
C356        C404   1.475       .  S
C356        O360   1.265       .  A
C361        N362   1.359   1_565  A
C361        N366   1.363       .  A
C361        C572   1.492       .  S
N362        C363   1.358   1_655  A
C363        N364   1.355   1_545  A
C363        C371   1.487       .  S
N364        C365   1.357   1_455  A
C365        N366   1.362       .  A
C365        C500   1.490       .  S
C367        C659   1.400       .  A
C367        C372   1.398       .  A
C367        H377   1.084       .  S
C368        C373   1.479       .  S
C368        C369   1.407       .  A
C369        C370   1.400       .  A
C369        O374   1.373       .  S
C370        H375   1.083       .  S
C371        C661   1.407       .  A
C371        C372   1.415       .  A
C372        O376   1.371       .  S
C373        C378   1.405       .  A
O374        H390   0.992       .  S
O376        H387   0.992       .  S
C378        C379   1.395       .  A
C378        O383   1.372       .  S
C379        H384   1.083       .  S
C380        C670   1.408       .  A
C380        C381   1.412       .  A
C381        C382   1.402       .  A
C381        O385   1.372       .  S
C382        C664   1.404       .  A
C382        H386   1.084       .  S
O383        H388   0.992       .  S
O385        H389   0.992       .  S
C391        C392   1.400       .  A
C391        C396   1.397       .  A
C391        H401   1.084       .  S
C392        C397   1.477       .  S
C392        C393   1.406       .  A
C393        C394   1.397       .  A
C393        O398   1.372       .  S
C394        C395   1.408       .  A
C394        H399   1.083       .  S
C395        C396   1.414       .  A
C396        O400   1.371       .  S
C397        C402   1.408       .  A
C397        C406   1.402       .  A
O398        H414   0.992       .  S
O400        H411   0.992       .  S
C402        C403   1.399       .  A
C402        O407   1.372       .  S
C403        C404   1.404       .  A
C403        H408   1.084       .  S
C404        C405   1.410       .  A
C405        C406   1.396       .  A
C405        O409   1.372       .  S
C406        H410   1.084       .  S
O407        H412   0.992       .  S
O409        H413   0.992       .  S
C415        C416   1.402       .  A
C415        C420   1.395       .  A
C415        H425   1.084       .  S
C416        C421   1.482       .  S
C416        C417   1.410       .  A
C417        C418   1.402       .  A
C417        O422   1.373       .  S
C418        C419   1.404       .  A
C418        H423   1.084       .  S
C419        C420   1.410       .  A
C420        O424   1.371       .  S
C421        C426   1.409       .  A
C421        C430   1.403       .  A
O422        H438   0.992       .  S
O424        H435   0.992       .  S
C426        C427   1.398       .  A
C426        O431   1.371       .  S
C427        C428   1.404       .  A
C427        H432   1.083       .  S
C428        C429   1.411       .  A
C429        C430   1.397       .  A
C429        O433   1.372       .  S
C430        H434   1.084       .  S
O431        H436   0.992       .  S
O433        H437   0.992       .  S
C439        C440   1.402       .  A
C439        C444   1.402       .  A
C439        H449   1.084       .  S
C440        C445   1.476       .  S
C440        C441   1.405       .  A
C441        C442   1.396       .  A
C441        O446   1.373       .  S
C442        C443   1.405       .  A
C442        H447   1.083       .  S
C443        C444   1.413       .  A
C444        O448   1.372       .  S
C445        C450   1.408       .  A
C445        C454   1.402       .  A
O446        H462   0.992       .  S
O448        H459   0.992       .  S
C450        C451   1.397       .  A
C450        O455   1.372       .  S
C451        C452   1.401       .  A
C451        H456   1.084       .  S
C452        C453   1.409       .  A
C453        C454   1.400       .  A
C453        O457   1.372       .  S
C454        H458   1.084       .  S
O455        H460   0.992       .  S
O457        H461   0.992       .  S
C463        C464   1.403       .  A
C463        C468   1.401       .  A
C463        H473   1.084       .  S
C464        C469   1.482       .  S
C464        C465   1.406       .  A
C465        C466   1.397       .  A
C465        O470   1.372       .  S
C466        C467   1.408       .  A
C466        H471   1.083       .  S
C467        C468   1.415       .  A
C468        O472   1.371       .  S
C469        C474   1.408       .  A
C469        C478   1.403       .  A
O470        H486   0.992       .  S
O472        H483   0.992       .  S
C474        C475   1.399       .  A
C474        O479   1.372       .  S
C475        C476   1.405       .  A
C475        H480   1.084       .  S
C476        C477   1.411       .  A
C477        C478   1.399       .  A
C477        O481   1.372       .  S
C478        H482   1.084       .  S
O479        H484   0.992       .  S
O481        H485   0.992       .  S
C487        C492   1.401       .  A
C487        H497   1.084       .  S
C488        C493   1.477       .  S
C488        C778   1.400       .  A
C488        C489   1.403       .  A
C489        C490   1.400       .  A
C489        O494   1.372       .  S
C490        C491   1.409       .  A
C490        H495   1.083       .  S
C491        C783   1.417       .  A
C492        O496   1.371       .  S
C493        C498   1.405       .  A
C493        C793   1.399   1_655  A
O494        H510   0.992       .  S
O496        H507   0.992       .  S
C498        C499   1.402       .  A
C498        O503   1.371       .  S
C499        C500   1.408       .  A
C499        H504   1.083       .  S
C500        C792   1.418   1_655  A
C501        C502   1.399       .  A
C501        O505   1.371       .  S
C502        H506   1.084       .  S
O503        H508   0.992       .  S
O505        H509   0.992       .  S
C511        C512   1.403       .  A
C511        C516   1.399       .  A
C511        H521   1.083       .  S
C512        C517   1.485       .  S
C512        C513   1.409       .  A
C513        C514   1.400       .  A
C513        O518   1.372       .  S
C514        C515   1.406       .  A
C514        H519   1.083       .  S
C515        C516   1.414       .  A
C516        O520   1.371       .  S
C517        C522   1.409       .  A
C517        C526   1.405       .  A
O518        H534   0.992       .  S
O520        H531   0.992       .  S
C522        C523   1.399       .  A
C522        O527   1.372       .  S
C523        C524   1.405       .  A
C523        H528   1.084       .  S
C524        C525   1.410       .  A
C525        C526   1.400       .  A
C525        O529   1.372       .  S
C526        H530   1.083       .  S
O527        H532   0.992       .  S
O529        H533   0.992       .  S
C535        C536   1.403       .  A
C535        C540   1.400       .  A
C535        H545   1.083       .  S
C536        C541   1.484       .  S
C536        C537   1.409       .  A
C537        C538   1.400       .  A
C537        O542   1.372       .  S
C538        C539   1.405       .  A
C538        H543   1.083       .  S
C539        C540   1.413       .  A
C540        O544   1.371       .  S
C541        C546   1.408       .  A
C541        C550   1.401       .  A
O542        H558   0.992       .  S
O544        H555   0.992       .  S
C546        C547   1.401       .  A
C546        O551   1.372       .  S
C547        C548   1.408       .  A
C547        H552   1.083       .  S
C548        C549   1.415       .  A
C549        C550   1.398       .  A
C549        O553   1.371       .  S
C550        H554   1.084       .  S
O551        H556   0.992       .  S
O553        H557   0.992       .  S
C559        C851   1.402       .  A
C559        C564   1.401       .  A
C559        H569   1.084       .  S
C560        C565   1.481       .  S
C560        C561   1.406   1_565  A
C561        C562   1.400       .  A
C561        O566   1.372       .  S
C562        C563   1.408       .  A
C562        H567   1.083       .  S
C564        C854   1.415   1_565  A
C564        O568   1.371       .  S
C565        C570   1.406       .  A
O566        H582   0.992   1_545  S
O568        H579   0.992       .  S
C570        C571   1.401       .  A
C570        O575   1.372       .  S
C571        H576   1.083       .  S
C572        C862   1.408       .  A
C572        C573   1.417   1_565  A
C573        C574   1.400       .  A
C573        O577   1.371       .  S
C574        C856   1.400   1_545  A
C574        H578   1.084       .  S
O575        H580   0.992       .  S
O577        H581   0.992       .  S
C583        N588   1.360       .  A
C583        C854   1.489       .  S
N584        C585   1.359       .  A
C585        N586   1.358       .  A
C585        C590   1.468       .  S
C587        N588   1.357       .  A
C587        C592   1.467       .  S
O589        C592   1.266       .  A
O589       Cd594   2.463       .  S
C590        O599   1.265       .  A
C590        O595   1.265       .  A
O591        C597   1.266       .  A
O591       Cd594   2.480       .  S
C592        O600   1.265       .  A
C593        C806   1.485       .  S
C593        O598   1.267       .  A
C593        O596   1.263       .  A
Cd594       O601   2.461       .  S
Cd594       O600   2.465       .  S
Cd594       O599   2.468       .  S
Cd594       O595   2.471       .  S
Cd594       O598   2.488   1_545  S
Cd594       O596   2.452   1_545  S
C597        C830   1.484       .  S
C597        O601   1.264       .  A
C602        N607   1.361   1_554  A
C602        C782   1.492       .  S
N603        C604   1.358       .  A
C604        C611   1.467       .  S
N605        C606   1.357   1_554  A
C606        N607   1.358   1_455  A
C606        C609   1.468       .  S
O608        C611   1.266       .  A
O608       Cd613   2.463       .  S
C609        O618   1.264       .  A
C609        O614   1.263       .  A
O610        C616   1.264       .  A
O610       Cd613   2.471       .  S
C611        O619   1.265   1_655  A
C612        C734   1.480       .  S
C612        O617   1.265       .  A
C612        O615   1.265       .  A
Cd613       O620   2.460       .  S
Cd613       O619   2.459   1_655  S
Cd613       O618   2.480   1_655  S
Cd613       O614   2.473   1_655  S
Cd613       O617   2.473   1_655  S
Cd613       O615   2.444   1_655  S
C616        C767   1.479       .  S
C616        O620   1.264       .  A
C621        N622   1.356       .  A
C621        N626   1.358       .  A
C621        C710   1.477       .  S
N622        C623   1.356       .  A
C623        N624   1.358       .  A
C623        C839   1.489       .  S
N624        C625   1.360       .  A
C625        N626   1.359       .  A
C625        C758   1.489       .  S
C627        N628   1.357       .  A
C627        N632   1.357       .  A
C627        C686   1.484       .  S
N628        C629   1.356       .  A
C629        N630   1.359       .  A
C629        C743   1.470       .  S
N630        C631   1.359       .  A
C631        N632   1.357       .  A
C631        C815   1.480       .  S
C633        N638   1.360       .  A
C633        C671   1.484       .  S
N634        C635   1.353       .  A
C635        C640   1.462       .  S
N636        C637   1.359       .  A
C637        N638   1.360       .  A
C637        C642   1.465       .  S
O639        C642   1.266       .  A
O639       Cd644   2.460       .  S
C640        O649   1.264       .  A
C640        O645   1.263       .  A
O641        C647   1.266       .  A
O641       Cd644   2.461       .  S
C642        O650   1.266       .  A
C643        C719   1.477       .  S
C643        O648   1.265       .  A
C643        O646   1.263       .  A
Cd644       O651   2.437       .  S
Cd644       O650   2.450       .  S
Cd644       O649   2.473       .  S
Cd644       O645   2.442       .  S
Cd644       O648   2.462       .  S
Cd644       O646   2.439       .  S
C647        C695   1.475       .  S
C647        O651   1.265       .  A
C652        N653   1.359   1_564  A
C652        N657   1.363       .  A
C652        C863   1.492       .  S
N653        C654   1.358   1_655  A
C654        N655   1.355   1_546  A
C654        C662   1.487       .  S
N655        C656   1.357   1_455  A
C656        N657   1.362       .  A
C656        C791   1.490       .  S
C658        C663   1.398       .  A
C658        H668   1.084       .  S
C659        C664   1.478       .  S
C659        C660   1.407       .  A
C660        C661   1.400       .  A
C660        O665   1.373       .  S
C661        H666   1.083       .  S
C662        C663   1.415       .  A
C663        O667   1.371       .  S
C664        C669   1.405       .  A
O665        H681   0.992       .  S
O667        H678   0.992       .  S
C669        C670   1.395       .  A
C669        O674   1.372       .  S
C670        H675   1.083       .  S
C671        C672   1.412       .  A
C672        C673   1.402       .  A
C672        O676   1.372       .  S
C673        H677   1.084       .  S
O674        H679   0.992       .  S
O676        H680   0.992       .  S
C682        C683   1.400       .  A
C682        C687   1.397       .  A
C682        H692   1.084       .  S
C683        C688   1.477       .  S
C683        C684   1.406       .  A
C684        C685   1.397       .  A
C684        O689   1.372       .  S
C685        C686   1.408       .  A
C685        H690   1.083       .  S
C686        C687   1.414       .  A
C687        O691   1.371       .  S
C688        C693   1.408       .  A
C688        C697   1.402       .  A
O689        H705   0.992       .  S
O691        H702   0.992       .  S
C693        C694   1.399       .  A
C693        O698   1.372       .  S
C694        C695   1.404       .  A
C694        H699   1.084       .  S
C695        C696   1.410       .  A
C696        C697   1.396       .  A
C696        O700   1.372       .  S
C697        H701   1.084       .  S
O698        H703   0.992       .  S
O700        H704   0.992       .  S
C706        C707   1.402       .  A
C706        C711   1.395       .  A
C706        H716   1.084       .  S
C707        C712   1.482       .  S
C707        C708   1.410       .  A
C708        C709   1.402       .  A
C708        O713   1.373       .  S
C709        C710   1.404       .  A
C709        H714   1.084       .  S
C710        C711   1.410       .  A
C711        O715   1.371       .  S
C712        C717   1.409       .  A
C712        C721   1.403       .  A
O713        H729   0.992       .  S
O715        H726   0.992       .  S
C717        C718   1.398       .  A
C717        O722   1.371       .  S
C718        C719   1.404       .  A
C718        H723   1.083       .  S
C719        C720   1.411       .  A
C720        C721   1.397       .  A
C720        O724   1.372       .  S
C721        H725   1.084       .  S
O722        H727   0.992       .  S
O724        H728   0.992       .  S
C730        C731   1.402       .  A
C730        C735   1.402       .  A
C730        H740   1.084       .  S
C731        C736   1.476       .  S
C731        C732   1.405       .  A
C732        C733   1.396       .  A
C732        O737   1.373       .  S
C733        C734   1.405       .  A
C733        H738   1.083       .  S
C734        C735   1.413       .  A
C735        O739   1.372       .  S
C736        C741   1.408       .  A
C736        C745   1.402       .  A
O737        H753   0.992       .  S
O739        H750   0.992       .  S
C741        C742   1.397       .  A
C741        O746   1.372       .  S
C742        C743   1.401       .  A
C742        H747   1.084       .  S
C743        C744   1.409       .  A
C744        C745   1.400       .  A
C744        O748   1.372       .  S
C745        H749   1.084       .  S
O746        H751   0.992       .  S
O748        H752   0.992       .  S
C754        C755   1.403       .  A
C754        C759   1.401       .  A
C754        H764   1.084       .  S
C755        C760   1.482       .  S
C755        C756   1.406       .  A
C756        C757   1.397       .  A
C756        O761   1.372       .  S
C757        C758   1.408       .  A
C757        H762   1.083       .  S
C758        C759   1.415       .  A
C759        O763   1.371       .  S
C760        C765   1.408       .  A
C760        C769   1.403       .  A
O761        H777   0.992       .  S
O763        H774   0.992       .  S
C765        C766   1.399       .  A
C765        O770   1.372       .  S
C766        C767   1.405       .  A
C766        H771   1.084       .  S
C767        C768   1.411       .  A
C768        C769   1.399       .  A
C768        O772   1.372       .  S
C769        H773   1.084       .  S
O770        H775   0.992       .  S
O772        H776   0.992       .  S
C778        C783   1.401       .  A
C778        H788   1.084       .  S
C779        C784   1.477       .  S
C779        C780   1.403   1_554  A
C780        C781   1.400       .  A
C780        O785   1.372       .  S
C781        C782   1.409   1_556  A
C781        H786   1.083       .  S
C783        O787   1.371       .  S
C784        C789   1.405   1_554  A
O785        H801   0.992       .  S
O787        H798   0.992       .  S
C789        C790   1.402       .  A
C789        O794   1.371       .  S
C790        C791   1.408   1_556  A
C790        H795   1.083       .  S
C792        C793   1.399       .  A
C792        O796   1.371       .  S
C793        H797   1.084       .  S
O794        H799   0.992       .  S
O796        H800   0.992       .  S
C802        C803   1.403       .  A
C802        C807   1.399       .  A
C802        H812   1.083       .  S
C803        C808   1.485       .  S
C803        C804   1.409       .  A
C804        C805   1.400       .  A
C804        O809   1.372       .  S
C805        C806   1.406       .  A
C805        H810   1.083       .  S
C806        C807   1.414       .  A
C807        O811   1.371       .  S
C808        C813   1.409       .  A
C808        C817   1.405       .  A
O809        H825   0.992       .  S
O811        H822   0.992       .  S
C813        C814   1.399       .  A
C813        O818   1.372       .  S
C814        C815   1.405       .  A
C814        H819   1.084       .  S
C815        C816   1.410       .  A
C816        C817   1.400       .  A
C816        O820   1.372       .  S
C817        H821   1.083       .  S
O818        H823   0.992       .  S
O820        H824   0.992       .  S
C826        C827   1.403       .  A
C826        C831   1.400       .  A
C826        H836   1.083       .  S
C827        C832   1.484       .  S
C827        C828   1.409       .  A
C828        C829   1.400       .  A
C828        O833   1.372       .  S
C829        C830   1.405       .  A
C829        H834   1.083       .  S
C830        C831   1.413       .  A
C831        O835   1.371       .  S
C832        C837   1.408       .  A
C832        C841   1.401       .  A
O833        H849   0.992       .  S
O835        H846   0.992       .  S
C837        C838   1.401       .  A
C837        O842   1.372       .  S
C838        C839   1.408       .  A
C838        H843   1.083       .  S
C839        C840   1.415       .  A
C840        C841   1.398       .  A
C840        O844   1.371       .  S
C841        H845   1.084       .  S
O842        H847   0.992       .  S
O844        H848   0.992       .  S
C850        C855   1.401       .  A
C850        H860   1.084       .  S
C851        C856   1.481       .  S
C851        C852   1.406   1_565  A
C852        C853   1.400       .  A
C852        O857   1.372       .  S
C853        C854   1.408       .  A
C853        H858   1.083       .  S
C855        O859   1.371       .  S
C856        C861   1.406       .  A
O857        H873   0.992   1_545  S
O859        H870   0.992       .  S
C861        C862   1.401       .  A
C861        O866   1.372       .  S
C862        H867   1.083       .  S
C863        C864   1.417   1_565  A
C864        C865   1.400       .  A
C864        O868   1.371       .  S
C865        H869   1.084       .  S
O866        H871   0.992       .  S
O868        H872   0.992   1_554  S
