geometry optimzed in LAMMPS
_audit_creation_date              2020-11-30 
_audit_creation_method            'lammps2cif' 
_symmetry_space_group_name_H-M    'P1' 
_symmetry_Int_Tables_number       1 
_symmetry_cell_setting            triclinic 
loop_ 
_symmetry_equiv_pos_as_xyz 
  x,y,z 
_cell_length_a                    73.49428091 
_cell_length_b                    73.90295134845532 
_cell_length_c                    73.46648902379546 
_cell_angle_alpha                 90.10268412289612 
_cell_angle_beta                  89.99146545321926 
_cell_angle_gamma                 89.86897516777906 
loop_ 
_atom_site_label 
_atom_site_type_symbol 
_atom_site_fract_x 
_atom_site_fract_y 
_atom_site_fract_z 
_atom_site_charge 
N1          N  0.64607405  0.17440077  0.86267906    -0.26300
N2          N  0.63811372  0.17714946  0.84678290    -0.34100
C3          C  0.63537224  0.19504627  0.84456763     0.02100
C4          C  0.64219021  0.20390623  0.85970689     0.08100
C5          C  0.64890621  0.19042691  0.87085633    -0.05000
H6          H  0.63008725  0.20120903  0.83231401     0.08800
H7          H  0.65590910  0.19216908  0.88368363     0.10000
Cu8        Cu  0.63480406  0.15670449  0.82761629     0.44200
Cu9        Cu  0.65408650  0.14917698  0.87199838     0.42000
Cu10       Cu  0.65690708  0.11371405  0.83843715     0.43900
N11         N  0.63917456  0.13601410  0.80891853    -0.33700
N12         N  0.64829994  0.12098034  0.81251220    -0.27900
C13         C  0.65126797  0.11196632  0.79683918    -0.04000
C14         C  0.64337075  0.12166004  0.78281495     0.08200
C15         C  0.63577356  0.13675654  0.79095546     0.02000
H16         H  0.65901774  0.09955549  0.79568878     0.09700
H17         H  0.62942719  0.14810617  0.78415720     0.08700
N18         N  0.66220478  0.10969159  0.86591482    -0.35100
N19         N  0.66103733  0.12272288  0.87822660    -0.27300
C20         C  0.66408593  0.11569147  0.89483347    -0.02500
C21         C  0.66737758  0.09741281  0.89280176     0.06100
C22         C  0.66603537  0.09399089  0.87436754     0.04200
H23         H  0.66335054  0.12321852  0.90745100     0.09300
H24         H  0.66710882  0.08099217  0.86766188     0.08100
N25         N  0.82334439  0.17610634  0.68469435    -0.26300
N26         N  0.80813780  0.17928306  0.67559120    -0.34100
C27         C  0.80677245  0.19717138  0.67240665     0.02100
C28         C  0.82168592  0.20562574  0.68010980     0.08100
C29         C  0.83187168  0.19189489  0.68781284    -0.05000
H30         H  0.79517945  0.20365263  0.66609595     0.08800
H31         H  0.84430094  0.19330920  0.69555374     0.10000
Cu32       Cu  0.78830249  0.15977072  0.67095744     0.44200
Cu33       Cu  0.83167676  0.15063739  0.69323291     0.42000
Cu34       Cu  0.79817984  0.11567810  0.69061447     0.43900
N35         N  0.76884914  0.13969018  0.67457846    -0.33700
N36         N  0.77231497  0.12409454  0.68270820    -0.27900
C37         C  0.75650117  0.11554760  0.68595421    -0.04000
C38         C  0.74244107  0.12612910  0.67935512     0.08200
C39         C  0.75074965  0.14128744  0.67213234     0.02000
H40         H  0.75528546  0.10290626  0.69324529     0.09700
H41         H  0.74405391  0.15323550  0.66687400     0.08700
N42         N  0.82520320  0.11071000  0.69751772    -0.35100
N43         N  0.83752346  0.12367696  0.69863966    -0.27300
C44         C  0.85383058  0.11623955  0.70244032    -0.02500
C45         C  0.85161037  0.09773377  0.70379396     0.06100
C46         C  0.83334700  0.09464792  0.70056790     0.04200
H47         H  0.86643773  0.12369139  0.70350340     0.09300
H48         H  0.82658614  0.08167730  0.69991280     0.08100
N49         N  0.77357374  0.30033779  0.86253908    -0.26300
N50         N  0.77006689  0.30914313  0.84726773    -0.34100
C51         C  0.75198816  0.31124777  0.84557084     0.02100
C52         C  0.74369973  0.30315308  0.86031047     0.08100
C53         C  0.75773583  0.29629709  0.87079198    -0.05000
H54         H  0.74534243  0.31726513  0.83391840     0.08800
H55         H  0.75653759  0.28878715  0.88335362     0.10000
Cu56       Cu  0.78933442  0.31496824  0.82756634     0.44200
Cu57       Cu  0.79975761  0.29437902  0.87137799     0.42000
Cu58       Cu  0.83428999  0.29858869  0.83663504     0.43900
N59         N  0.80880469  0.31154076  0.80746169    -0.33700
N60         N  0.82491316  0.30421808  0.81064134    -0.27900
C61         C  0.83319966  0.30081548  0.79466097    -0.04000
C62         C  0.82185540  0.30657001  0.78081476     0.08200
C63         C  0.80654188  0.31335846  0.78938820     0.02000
H64         H  0.84631290  0.29429709  0.79323060     0.09700
H65         H  0.79417704  0.31806939  0.78295105     0.08700
N66         N  0.84009148  0.29532289  0.86405321    -0.35100
N67         N  0.82749493  0.29354661  0.87679030    -0.27300
C68         C  0.83567565  0.29255213  0.89316028    -0.02500
C69         C  0.85422944  0.29379402  0.89048717     0.06100
C70         C  0.85660368  0.29554405  0.87195264     0.04200
H71         H  0.82861751  0.29147647  0.90602906     0.09300
H72         H  0.86932396  0.29723352  0.86475680     0.08100
N73         N  0.64191581  0.25320080  0.85962977    -0.26300
N74         N  0.65746595  0.24985955  0.86805664    -0.34100
C75         C  0.65944486  0.23188620  0.87001796     0.02100
C76         C  0.64460868  0.22348970  0.86217819     0.08100
C77         C  0.63377133  0.23736410  0.85564834    -0.05000
H78         H  0.67138438  0.22537979  0.87562063     0.08800
H79         H  0.62110781  0.23605245  0.84827730     0.10000
Cu80       Cu  0.67720405  0.26925147  0.87299373     0.44200
Cu81       Cu  0.63303950  0.27917980  0.85334354     0.42000
Cu82       Cu  0.66874135  0.31246682  0.85178341     0.43900
N83         N  0.69731972  0.28831202  0.86835986    -0.33700
N84         N  0.69434030  0.30354363  0.85941868    -0.27900
C85         C  0.71036489  0.31148682  0.85581757    -0.04000
C86         C  0.72405702  0.30085149  0.86302318     0.08200
C87         C  0.71534003  0.28630304  0.87095491     0.02000
H88         H  0.71194553  0.32380796  0.84805904     0.09700
H89         H  0.72166944  0.27449843  0.87693482     0.08700
N90         N  0.64149685  0.31875657  0.84835066    -0.35100
N91         N  0.62833030  0.30661143  0.84918600    -0.27300
C92         C  0.61218217  0.31514430  0.84788554    -0.02500
C93         C  0.61544851  0.33344654  0.84609530     0.06100
C94         C  0.63411247  0.33532301  0.84645536     0.04200
H95         H  0.59907629  0.30856364  0.84869526     0.09300
H96         H  0.64175206  0.34780819  0.84599139     0.08100
N97         N  0.82116675  0.25480972  0.67948647    -0.26300
N98         N  0.82996841  0.25178836  0.69489238    -0.34100
C99         C  0.83247929  0.23386069  0.69684068     0.02100
C100        C  0.82460001  0.22519816  0.68213496     0.08100
C101        C  0.81755102  0.23886531  0.67140068    -0.05000
H102        H  0.83823619  0.22754119  0.70879911     0.08800
H103        H  0.80973095  0.23731836  0.65903051     0.10000
Cu104      Cu  0.83428357  0.27147743  0.71463201     0.44200
Cu105      Cu  0.81302265  0.28029707  0.67093027     0.42000
Cu106      Cu  0.81321100  0.31478762  0.70565920     0.43900
N107        N  0.82969797  0.29095908  0.73454118    -0.33700
N108        N  0.82095095  0.30629260  0.73137865    -0.27900
C109        C  0.81734258  0.31450168  0.74733131    -0.04000
C110        C  0.82440082  0.30396646  0.76115730     0.08200
C111        C  0.83220491  0.28918395  0.75259920     0.02000
H112        H  0.80969398  0.32694506  0.74877392     0.09700
H113        H  0.83805882  0.27739692  0.75907797     0.08700
N114        N  0.80706877  0.31988792  0.67863151    -0.35100
N115        N  0.80693052  0.30723148  0.66588066    -0.27300
C116        C  0.80340515  0.31498182  0.64969682    -0.02500
C117        C  0.80119724  0.33332197  0.65250673     0.06100
C118        C  0.80365093  0.33603692  0.67092208     0.04200
H119        H  0.80312971  0.30788315  0.63681285     0.09300
H120        H  0.80359229  0.34882807  0.67809843     0.08100
N121        N  0.64179479  0.12198498  0.73346113    -0.26300
N122        N  0.65785327  0.11433040  0.73616354    -0.34100
C123        C  0.66025568  0.11176552  0.75414237     0.02100
C124        C  0.64512190  0.11840573  0.76315531     0.08100
C125        C  0.63371026  0.12478252  0.74964732    -0.05000
H126        H  0.67276002  0.10701649  0.76027175     0.08800
H127        H  0.62091252  0.13179892  0.75149202     0.10000
Cu128      Cu  0.67750260  0.11184416  0.71597228     0.44200
Cu129      Cu  0.63232569  0.13014428  0.70816028     0.42000
Cu130      Cu  0.66653543  0.13305772  0.67300653     0.43900
N131        N  0.69668228  0.11743845  0.69598554    -0.33700
N132        N  0.69287193  0.12621899  0.68077872    -0.27900
C133        C  0.70853547  0.13021654  0.67216502    -0.04000
C134        C  0.72283000  0.12338144  0.68232515     0.08200
C135        C  0.71482171  0.11531461  0.69727735     0.02000
H136        H  0.70946176  0.13789527  0.65968436     0.09700
H137        H  0.72172670  0.10942953  0.70884914     0.08700
N138        N  0.63897473  0.13754060  0.66842496    -0.35100
N139        N  0.62643723  0.13654110  0.68130718    -0.27300
C140        C  0.60991401  0.13903813  0.67378796    -0.02500
C141        C  0.61224974  0.14173486  0.65534519     0.06100
C142        C  0.63076454  0.14067380  0.65235966     0.04200
H143        H  0.59716205  0.13824608  0.68108988     0.09300
H144        H  0.63771080  0.14144204  0.63940520     0.08100
N145        N  0.19307017  0.30627797  0.86197363    -0.26300
N146        N  0.19664538  0.31649005  0.84764743    -0.34100
C147        C  0.21471374  0.31926833  0.84671848     0.02100
C148        C  0.22285039  0.31012220  0.86097171     0.08100
C149        C  0.20876782  0.30200444  0.87032572    -0.05000
H150        H  0.22150927  0.32626175  0.83573883     0.08800
H151        H  0.20986893  0.29325672  0.88206128     0.10000
Cu152      Cu  0.17751537  0.32259261  0.82780610     0.44200
Cu153      Cu  0.16718343  0.29800255  0.86936599     0.42000
Cu154      Cu  0.13301428  0.30241630  0.83524827     0.43900
N155        N  0.15874507  0.31800136  0.80722162    -0.33700
N156        N  0.14306181  0.30964592  0.80984162    -0.27900
C157        C  0.13570028  0.30561722  0.79357939    -0.04000
C158        C  0.14719201  0.31188035  0.78010052     0.08200
C159        C  0.16161998  0.31975615  0.78920925     0.02000
H160        H  0.12323605  0.29808912  0.79172349     0.09700
H161        H  0.17392898  0.32509230  0.78321979     0.08700
N162        N  0.12703499  0.29592088  0.86209476    -0.35100
N163        N  0.13978795  0.29402894  0.87463922    -0.27300
C164        C  0.13185941  0.29094691  0.89084534    -0.02500
C165        C  0.11325227  0.29089114  0.88832391     0.06100
C166        C  0.11059562  0.29410788  0.86998780     0.04200
H167        H  0.13908064  0.28963993  0.90360182     0.09300
H168        H  0.09772458  0.29570024  0.86303538     0.08100
N169        N  0.13861409  0.18005812  0.68738193    -0.26300
N170        N  0.15428578  0.18309168  0.67907602    -0.34100
C171        C  0.15571515  0.20086549  0.67553408     0.02100
C172        C  0.14038085  0.20945791  0.68219486     0.08100
C173        C  0.12984218  0.19591201  0.68969632    -0.05000
H174        H  0.16762261  0.20721861  0.66974751     0.08800
H175        H  0.11698800  0.19749518  0.69669296     0.10000
Cu176      Cu  0.17478587  0.16392948  0.67624086     0.44200
Cu177      Cu  0.13015815  0.15458953  0.69566204     0.42000
Cu178      Cu  0.16601283  0.12147363  0.69857499     0.43900
N179        N  0.19492171  0.14496227  0.68172410    -0.33700
N180        N  0.19181458  0.12995047  0.69097081    -0.27900
C181        C  0.20774134  0.12154377  0.69416552    -0.04000
C182        C  0.22150308  0.13162620  0.68635411     0.08200
C183        C  0.21290835  0.14637094  0.67854725     0.02000
H184        H  0.20918896  0.10905740  0.70169389     0.09700
H185        H  0.21931292  0.15768664  0.67179328     0.08700
N186        N  0.13868327  0.11521181  0.70175396    -0.35100
N187        N  0.12547902  0.12734786  0.70060603    -0.27300
C188        C  0.10933150  0.11884962  0.70172302    -0.02500
C189        C  0.11262124  0.10055273  0.70368807     0.06100
C190        C  0.13130874  0.09866695  0.70364120     0.04200
H191        H  0.09622710  0.12542837  0.70053730     0.09300
H192        H  0.13897455  0.08617392  0.70424415     0.08100
N193        N  0.31799963  0.17806764  0.86267368    -0.26300
N194        N  0.32612659  0.18084190  0.84686570    -0.34100
C195        C  0.32875710  0.19872477  0.84460152     0.02100
C196        C  0.32168987  0.20765959  0.85957703     0.08100
C197        C  0.31490623  0.19416968  0.87072404    -0.05000
H198        H  0.33429509  0.20482547  0.83243874     0.08800
H199        H  0.30791797  0.19594962  0.88356004     0.10000
Cu200      Cu  0.33007360  0.16053458  0.82772735     0.44200
Cu201      Cu  0.31104236  0.15241209  0.87213826     0.42000
Cu202      Cu  0.31224401  0.11613662  0.83882369     0.43900
N203        N  0.32608829  0.14009860  0.80875817    -0.33700
N204        N  0.31854254  0.12431555  0.81255328    -0.27900
C205        C  0.31543069  0.11534116  0.79689234    -0.04000
C206        C  0.32160452  0.12589319  0.78265725     0.08200
C207        C  0.32830816  0.14143803  0.79065341     0.02000
H208        H  0.30891248  0.10226509  0.79593622     0.09700
H209        H  0.33341681  0.15330890  0.78375615     0.08700
N210        N  0.30722122  0.11205371  0.86632265    -0.35100
N211        N  0.30665314  0.12527883  0.87848528    -0.27300
C212        C  0.30333945  0.11813527  0.89501263    -0.02500
C213        C  0.30173060  0.09961162  0.89306677     0.06100
C214        C  0.30430699  0.09617007  0.87477439     0.04200
H215        H  0.30238490  0.12583713  0.90750746     0.09300
H216        H  0.30423690  0.08311060  0.86810843     0.08100
N217        N  0.32290586  0.25704612  0.85910782    -0.26300
N218        N  0.30741165  0.25411646  0.86776912    -0.34100
C219        C  0.30508878  0.23619973  0.86992078     0.02100
C220        C  0.31964764  0.22735671  0.86197858     0.08100
C221        C  0.33066819  0.24095603  0.85517412    -0.05000
H222        H  0.29310843  0.23004242  0.87577127     0.08800
H223        H  0.34322319  0.23927304  0.84768036     0.10000
Cu224      Cu  0.28831067  0.27411246  0.87301111     0.44200
Cu225      Cu  0.33227034  0.28296967  0.85275912     0.42000
Cu226      Cu  0.29840446  0.31870613  0.85616159     0.43900
N227        N  0.26877345  0.29401514  0.86932270    -0.33700
N228        N  0.27230144  0.31000842  0.86212297    -0.27900
C229        C  0.25649944  0.31852289  0.85854934    -0.04000
C230        C  0.24241125  0.30741260  0.86399217     0.08200
C231        C  0.25065828  0.29203809  0.87082248     0.02000
H232        H  0.25535866  0.33155577  0.85196506     0.09700
H233        H  0.24398434  0.27979740  0.87530128     0.08700
N234        N  0.32567006  0.32339198  0.85079958    -0.35100
N235        N  0.33807155  0.31044288  0.84940927    -0.27300
C236        C  0.35440305  0.31810755  0.84630203    -0.02500
C237        C  0.35204351  0.33666234  0.84568640     0.06100
C238        C  0.33373746  0.33957338  0.84863085     0.04200
H239        H  0.36706769  0.31074384  0.84496461     0.09300
H240        H  0.32681984  0.35248280  0.84946630     0.08100
N241        N  0.27099122  0.12978429  0.68332324    -0.26300
N242        N  0.26810879  0.11974342  0.69793825    -0.34100
C243        C  0.25009044  0.11828015  0.70072604     0.02100
C244        C  0.24118568  0.12808872  0.68743358     0.08100
C245        C  0.25481957  0.13522410  0.67662728    -0.05000
H246        H  0.24398521  0.11164244  0.71232026     0.08800
H247        H  0.25314154  0.14407879  0.66504325     0.10000
Cu248      Cu  0.28825209  0.11218653  0.71615481     0.44200
Cu249      Cu  0.29680383  0.13655432  0.67374723     0.42000
Cu250      Cu  0.33143011  0.13371594  0.70776196     0.43900
N251        N  0.30759804  0.11639778  0.73622100    -0.33700
N252        N  0.32274526  0.12556155  0.73329304    -0.27900
C253        C  0.33045959  0.12960155  0.74937069    -0.04000
C254        C  0.31979892  0.12243252  0.76305207     0.08200
C255        C  0.30545432  0.11406035  0.75426634     0.02000
H256        H  0.34250623  0.13782075  0.75099681     0.09700
H257        H  0.29353564  0.10820523  0.76054968     0.08700
N258        N  0.33701123  0.13963744  0.68077728    -0.35100
N259        N  0.32428761  0.14065108  0.66809225    -0.27300
C260        C  0.33232027  0.14348497  0.65185024    -0.02500
C261        C  0.35092383  0.14431060  0.65457680     0.06100
C262        C  0.35344543  0.14179982  0.67301257     0.04200
H263        H  0.32520439  0.14427641  0.63899173     0.09300
H264        H  0.36627656  0.14097356  0.68017365     0.08100
N265        N  0.14226419  0.25836203  0.67974601    -0.26300
N266        N  0.13360639  0.25628392  0.69537779    -0.34100
C267        C  0.13028416  0.23856444  0.69794951     0.02100
C268        C  0.13750189  0.22908661  0.68338050     0.08100
C269        C  0.14498100  0.24204079  0.67212167    -0.05000
H270        H  0.12473936  0.23288707  0.71031635     0.08800
H271        H  0.15273439  0.23971022  0.65982526     0.10000
Cu272      Cu  0.13146042  0.27675587  0.71462261     0.44200
Cu273      Cu  0.15191763  0.28294310  0.67040645     0.42000
Cu274      Cu  0.15785495  0.31716099  0.70454156     0.43900
N275        N  0.13910311  0.29573468  0.73400826    -0.33700
N276        N  0.14982321  0.30968591  0.73060522    -0.27900
C277        C  0.15418824  0.31777486  0.74644897    -0.04000
C278        C  0.14559293  0.30860873  0.76040899     0.08200
C279        C  0.13612929  0.29476106  0.75203955     0.02000
H280        H  0.16303051  0.32938982  0.74770473     0.09700
H281        H  0.12839201  0.28420467  0.75863558     0.08700
N282        N  0.16102719  0.32204841  0.67685823    -0.35100
N283        N  0.15883958  0.30938210  0.66431762    -0.27300
C284        C  0.15966431  0.31701406  0.64772714    -0.02500
C285        C  0.16252235  0.33532907  0.64997573     0.06100
C286        C  0.16328045  0.33812133  0.66856154     0.04200
H287        H  0.15721039  0.30994030  0.63506510     0.09300
H288        H  0.16424355  0.35097997  0.67554474     0.08100
N289        N  0.32625614  0.80949364  0.81158279    -0.26300
N290        N  0.33335015  0.79350819  0.80761106    -0.34100
C291        C  0.33389707  0.79155435  0.78941088     0.02100
C292        C  0.32648505  0.80689675  0.78159699     0.08100
C293        C  0.32172770  0.81798000  0.79601878    -0.05000
H294        H  0.33819153  0.77937201  0.78242985     0.08800
H295        H  0.31513220  0.83105573  0.79528254     0.10000
Cu296      Cu  0.33813176  0.77359439  0.82695440     0.44200
Cu297      Cu  0.32212585  0.81838461  0.83806077     0.42000
Cu298      Cu  0.31970508  0.78288773  0.87188443     0.43900
N299        N  0.33332700  0.75370256  0.84629407    -0.33700
N300        N  0.32514295  0.75680958  0.86204317    -0.27900
C301        C  0.32109404  0.74079272  0.86982228    -0.04000
C302        C  0.32735281  0.72703608  0.85857764     0.08200
C303        C  0.33509902  0.73572843  0.84385856     0.02000
H304        H  0.31389581  0.73926738  0.88256088     0.09700
H305        H  0.34048156  0.72944437  0.83168646     0.08700
N306        N  0.31795110  0.81050366  0.87813823    -0.35100
N307        N  0.31906063  0.82338277  0.86568980    -0.27300
C308        C  0.31819880  0.83965135  0.87392019    -0.02500
C309        C  0.31643777  0.83690389  0.89240581     0.06100
C310        C  0.31631650  0.81831495  0.89467244     0.04200
H311        H  0.31894374  0.85251039  0.86694880     0.09300
H312        H  0.31533403  0.81101228  0.90737978     0.08100
N313        N  0.19404754  0.81106853  0.67972079    -0.26300
N314        N  0.19856485  0.79577158  0.67147642    -0.34100
C315        C  0.21679108  0.79490989  0.67004084     0.02100
C316        C  0.22406310  0.81019959  0.67807655     0.08100
C317        C  0.20929886  0.82012860  0.68412832    -0.05000
H318        H  0.22423662  0.78338260  0.66479544     0.08800
H319        H  0.20961247  0.83277250  0.69155674     0.10000
Cu320      Cu  0.18031390  0.77491221  0.66635160     0.44200
Cu321      Cu  0.16740959  0.81862240  0.68526325     0.42000
Cu322      Cu  0.13495804  0.78261752  0.68429840     0.43900
N323        N  0.16159429  0.75436298  0.67097607    -0.33700
N324        N  0.14562352  0.75718929  0.67880226    -0.27900
C325        C  0.13816962  0.74116506  0.68311421    -0.04000
C326        C  0.14983170  0.72760644  0.67744560     0.08200
C327        C  0.16452048  0.73639942  0.66972861     0.02000
H328        H  0.12544413  0.73953084  0.69030536     0.09700
H329        H  0.17699703  0.73026080  0.66490935     0.08700
N330        N  0.12758650  0.80955438  0.68732382    -0.35100
N331        N  0.13959405  0.82284656  0.68768832    -0.27300
C332        C  0.13070387  0.83874234  0.68889512    -0.02500
C333        C  0.11227217  0.83520828  0.68930922     0.06100
C334        C  0.11070847  0.81661779  0.68829832     0.04200
H335        H  0.13717453  0.85187389  0.68909980     0.09300
H336        H  0.09827462  0.80882082  0.68794369     0.08100
N337        N  0.14489489  0.62486665  0.81092835    -0.26300
N338        N  0.16074842  0.61721320  0.80720258    -0.34100
C339        C  0.16293893  0.61641854  0.78903795     0.02100
C340        C  0.14789333  0.62421936  0.78093340     0.08100
C341        C  0.13674891  0.62953036  0.79518058    -0.05000
H342        H  0.17514392  0.61171326  0.78228150     0.08800
H343        H  0.12387492  0.63657534  0.79418797     0.10000
Cu344      Cu  0.18033877  0.61190360  0.82678920     0.44200
Cu345      Cu  0.13574615  0.62915432  0.83744086     0.42000
Cu346      Cu  0.17077109  0.62786906  0.87237991     0.43900
N347        N  0.20023164  0.61594681  0.84636913    -0.33700
N348        N  0.19698269  0.62309970  0.86256797    -0.27900
C349        C  0.21298645  0.62721975  0.87050361    -0.04000
C350        C  0.22688796  0.62212316  0.85882902     0.08200
C351        C  0.21831323  0.61495294  0.84373322     0.02000
H352        H  0.21438192  0.63389582  0.88353904     0.09700
H353        H  0.22469677  0.61067242  0.83117187     0.08700
N354        N  0.14306601  0.63056941  0.87797288    -0.35100
N355        N  0.13033301  0.63102167  0.86523123    -0.27300
C356        C  0.11389469  0.63222836  0.87326939    -0.02500
C357        C  0.11643835  0.63258459  0.89189456     0.06100
C358        C  0.13503857  0.63148841  0.89444764     0.04200
H359        H  0.10105779  0.63252652  0.86608242     0.09300
H360        H  0.14219832  0.63108569  0.90729932     0.08100
N361        N  0.27622555  0.62502500  0.85612853    -0.26300
N362        N  0.27246769  0.64045251  0.86450235    -0.34100
C363        C  0.25442366  0.64134084  0.86761774     0.02100
C364        C  0.24646119  0.62587916  0.86061212     0.08100
C365        C  0.26064987  0.61589249  0.85334702    -0.05000
H366        H  0.24748594  0.65289998  0.87345400     0.08800
H367        H  0.25969384  0.60307167  0.84628747     0.10000
Cu368      Cu  0.29153975  0.66091291  0.86839541     0.44200
Cu369      Cu  0.30235182  0.61705572  0.84882273     0.42000
Cu370      Cu  0.33665133  0.65181774  0.85044808     0.43900
N371        N  0.31122302  0.68082124  0.86469912    -0.33700
N372        N  0.32718685  0.67768203  0.85696587    -0.27900
C373        C  0.33558169  0.69360429  0.85404501    -0.04000
C374        C  0.32453466  0.70737586  0.86055512     0.08200
C375        C  0.30923970  0.69877904  0.86726847     0.02000
H376        H  0.34862662  0.69507053  0.84740670     0.09700
H377        H  0.29708287  0.70517439  0.87254753     0.08700
N378        N  0.34264001  0.62441939  0.84691772    -0.35100
N379        N  0.32998575  0.61173307  0.84615774    -0.27300
C380        C  0.33808183  0.59539807  0.84516822    -0.02500
C381        C  0.35668298  0.59794584  0.84531466     0.06100
C382        C  0.35915475  0.61645595  0.84644736     0.04200
H383        H  0.33094777  0.58261199  0.84509614     0.09300
H384        H  0.37195700  0.62356636  0.84753072     0.08100
N385        N  0.14779713  0.62641676  0.73142276    -0.26300
N386        N  0.14210027  0.64292241  0.73552639    -0.34100
C387        C  0.14042714  0.64437636  0.75372560     0.02100
C388        C  0.14559348  0.62810757  0.76143791     0.08100
C389        C  0.15030385  0.61707452  0.74694460    -0.05000
H390        H  0.13679350  0.65668588  0.76085369     0.08800
H391        H  0.15537200  0.60334090  0.74763937     0.10000
Cu392      Cu  0.13970072  0.66350721  0.71644360     0.44200
Cu393      Cu  0.15188702  0.61740959  0.70483042     0.42000
Cu394      Cu  0.15290404  0.65197939  0.67018202     0.43900
N395        N  0.14375150  0.68246420  0.69599460    -0.33700
N396        N  0.14975704  0.67838138  0.67950773    -0.27900
C397        C  0.15284366  0.69380996  0.67028321    -0.04000
C398        C  0.14821035  0.70820685  0.68140410     0.08200
C399        C  0.14246044  0.70055832  0.69755278     0.02000
H400        H  0.15792039  0.69447851  0.65648617     0.09700
H401        H  0.13834734  0.70763462  0.70978229     0.08700
N402        N  0.15298938  0.62443088  0.66433429    -0.35100
N403        N  0.15269964  0.61175698  0.67703174    -0.27300
C404        C  0.15177831  0.59541723  0.66892662    -0.02500
C405        C  0.15146070  0.59798034  0.65030108     0.06100
C406        C  0.15223381  0.61649294  0.64782381     0.04200
H407        H  0.15087121  0.58267107  0.67607961     0.09300
H408        H  0.15177806  0.62369340  0.63502554     0.08100
N409        N  0.27333653  0.81139163  0.68009441    -0.26300
N410        N  0.26933097  0.81828955  0.69623885    -0.34100
C411        C  0.25112363  0.82005873  0.69754389     0.02100
C412        C  0.24341664  0.81366637  0.68158905     0.08100
C413        C  0.25786743  0.80824821  0.67088638    -0.05000
H414        H  0.24398339  0.82425650  0.70971867     0.08800
H415        H  0.25717987  0.80185081  0.65765240     0.10000
Cu416      Cu  0.28846244  0.82114102  0.71701090     0.44200
Cu417      Cu  0.29938334  0.80516149  0.67147001     0.42000
Cu418      Cu  0.33308564  0.80189662  0.70597069     0.43900
N419        N  0.30865820  0.81569608  0.73620312    -0.33700
N420        N  0.32419762  0.80751667  0.73219142    -0.27900
C421        C  0.33302961  0.80352171  0.74770187    -0.04000
C422        C  0.32277429  0.80976797  0.76215495     0.08200
C423        C  0.30743812  0.81747995  0.75442462     0.02000
H424        H  0.34588639  0.79640923  0.74839800     0.09700
H425        H  0.29577968  0.82296782  0.76154212     0.08700
N426        N  0.33917331  0.79961572  0.67848417    -0.35100
N427        N  0.32657353  0.80084205  0.66571402    -0.27300
C428        C  0.33457138  0.80011181  0.64926509    -0.02500
C429        C  0.35307100  0.79834314  0.65187343     0.06100
C430        C  0.35560549  0.79808388  0.67050735     0.04200
H431        H  0.32749743  0.80138994  0.63642393     0.09300
H432        H  0.36841545  0.79744693  0.67772021     0.08100
N433        N  0.77418547  0.80632914  0.68151455    -0.26300
N434        N  0.77145701  0.79124628  0.67218828    -0.34100
C435        C  0.75348685  0.78797184  0.67137935     0.02100
C436        C  0.74454444  0.80143921  0.68092840     0.08100
C437        C  0.75803947  0.81283838  0.68721026    -0.05000
H438        H  0.74748388  0.77601487  0.66537708     0.08800
H439        H  0.75630202  0.82477132  0.69558526     0.10000
Cu440      Cu  0.79209921  0.77356999  0.66460342     0.44200
Cu441      Cu  0.79974793  0.81693461  0.68678457     0.42000
Cu442      Cu  0.83609792  0.78456670  0.68325982     0.43900
N443        N  0.81291335  0.75479907  0.66760707    -0.33700
N444        N  0.82845119  0.75859794  0.67582463    -0.27900
C445        C  0.83733557  0.74307397  0.67938373    -0.04000
C446        C  0.82703750  0.72887130  0.67281149     0.08200
C447        C  0.81168837  0.73676638  0.66535103     0.02000
H448        H  0.84993029  0.74215122  0.68693689     0.09700
H449        H  0.79975791  0.72983780  0.66030789     0.08700
N450        N  0.84032834  0.81189726  0.68802363    -0.35100
N451        N  0.82696341  0.82384991  0.68926112    -0.27300
C452        C  0.83410976  0.84044757  0.69159813    -0.02500
C453        C  0.85281543  0.83874587  0.69185271     0.06100
C454        C  0.85634962  0.82054097  0.68954883     0.04200
H455        H  0.82627954  0.85280405  0.69275416     0.09300
H456        H  0.86954367  0.81407952  0.68875003     0.08100
N457        N  0.63721547  0.80568041  0.81281261    -0.26300
N458        N  0.62923770  0.78996633  0.80965381    -0.34100
C459        C  0.62902164  0.78688989  0.79159211     0.02100
C460        C  0.63758944  0.80119305  0.78306023     0.08100
C461        C  0.64266835  0.81282587  0.79689225    -0.05000
H462        H  0.62431113  0.77452325  0.78527897     0.08800
H463        H  0.65021267  0.82530056  0.79554234     0.10000
Cu464      Cu  0.62342913  0.77151410  0.83009714     0.44200
Cu465      Cu  0.64151726  0.81596168  0.83873966     0.42000
Cu466      Cu  0.64241351  0.78277663  0.87445620     0.43900
N467        N  0.62881765  0.75262447  0.85026900    -0.33700
N468        N  0.63719290  0.75651964  0.86572543    -0.27900
C469        C  0.64215356  0.74098595  0.87391335    -0.04000
C470        C  0.63629475  0.72670053  0.86325858     0.08200
C471        C  0.62783365  0.73454076  0.84844376     0.02000
H472        H  0.64988377  0.74016905  0.88640776     0.09700
H473        H  0.62271480  0.72764686  0.83650665     0.08700
N474        N  0.64506770  0.81038786  0.87917638    -0.35100
N475        N  0.64460866  0.82256799  0.86601063    -0.27300
C476        C  0.64627917  0.83918759  0.87332590    -0.02500
C477        C  0.64789025  0.83731089  0.89193668     0.06100
C478        C  0.64706292  0.81894073  0.89525220     0.04200
H479        H  0.64625848  0.85167029  0.86565805     0.09300
H480        H  0.64775041  0.81228443  0.90833667     0.08100
N481        N  0.82457329  0.63255462  0.80921988    -0.26300
N482        N  0.80942829  0.62366739  0.80540025    -0.34100
C483        C  0.80778004  0.62210082  0.78723215     0.02100
C484        C  0.82238216  0.63067979  0.77917872     0.08100
C485        C  0.83273960  0.63723381  0.79348508    -0.05000
H486        H  0.79623453  0.61612002  0.78038196     0.08800
H487        H  0.84520191  0.64492578  0.79253068     0.10000
Cu488      Cu  0.78970769  0.61726540  0.82453679     0.44200
Cu489      Cu  0.83332475  0.63778074  0.83577728     0.42000
Cu490      Cu  0.79839919  0.63408766  0.86983803     0.43900
N491        N  0.76946469  0.62105547  0.84386804    -0.33700
N492        N  0.77254565  0.62855924  0.85992658    -0.27900
C493        C  0.75651919  0.63251307  0.86784994    -0.04000
C494        C  0.74272658  0.62696371  0.85635709     0.08200
C495        C  0.75137987  0.61966568  0.84132101     0.02000
H496        H  0.75502913  0.63936538  0.88078673     0.09700
H497        H  0.74503183  0.61502630  0.82888316     0.08700
N498        N  0.82574542  0.63723112  0.87618272    -0.35100
N499        N  0.83864646  0.63867198  0.86370990    -0.27300
C500        C  0.85495099  0.63917750  0.87210724    -0.02500
C501        C  0.85208991  0.63799995  0.89068231     0.06100
C502        C  0.83346187  0.63677555  0.89280652     0.04200
H503        H  0.86792168  0.63965818  0.86517614     0.09300
H504        H  0.82609399  0.63500530  0.90541969     0.08100
N505        N  0.82326631  0.63052205  0.72960910    -0.26300
N506        N  0.83078177  0.64642664  0.73296906    -0.34100
C507        C  0.83233760  0.64861616  0.75111139     0.02100
C508        C  0.82520658  0.63348153  0.75953955     0.08100
C509        C  0.81951379  0.62233284  0.74551615    -0.05000
H510        H  0.83731385  0.66074551  0.75767686     0.08800
H511        H  0.81292302  0.60932418  0.74677972     0.10000
Cu512      Cu  0.83582177  0.66550344  0.71281770     0.44200
Cu513      Cu  0.81827954  0.62080038  0.70350628     0.42000
Cu514      Cu  0.82155847  0.65352193  0.66710575     0.43900
N515        N  0.83357095  0.68395169  0.69159331    -0.33700
N516        N  0.82720755  0.67977152  0.67528142    -0.27900
C517        C  0.82453373  0.69509157  0.66575767    -0.04000
C518        C  0.82979280  0.70953896  0.67648849     0.08200
C519        C  0.83550156  0.70201328  0.69272938     0.02000
H520        H  0.81870460  0.69568968  0.65225858     0.09700
H521        H  0.83943390  0.70921108  0.70493353     0.08700
N522        N  0.81778476  0.62606518  0.66277454    -0.35100
N523        N  0.81648999  0.61408334  0.67607148    -0.27300
C524        C  0.81466437  0.59746379  0.66877390    -0.02500
C525        C  0.81483179  0.59917136  0.65006791     0.06100
C526        C  0.81683436  0.61740931  0.64667342     0.04200
H527        H  0.81356324  0.58507688  0.67651571     0.09300
H528        H  0.81776158  0.62390176  0.63352146     0.08100
N529        N  0.69322773  0.62812286  0.85673320    -0.26300
N530        N  0.69691657  0.64391201  0.86437802    -0.34100
C531        C  0.71507528  0.64566680  0.86585222     0.02100
C532        C  0.72314920  0.63039028  0.85851891     0.08100
C533        C  0.70893860  0.61959226  0.85276039    -0.05000
H534        H  0.72190194  0.65751218  0.87114656     0.08800
H535        H  0.70992458  0.60645860  0.84630604     0.10000
Cu536      Cu  0.67721181  0.66331212  0.87020734     0.44200
Cu537      Cu  0.66698769  0.61863217  0.85283827     0.42000
Cu538      Cu  0.63089074  0.65128629  0.85811073     0.43900
N539        N  0.65595910  0.68186793  0.86864379    -0.33700
N540        N  0.63941335  0.67761756  0.86300422    -0.27900
C541        C  0.62969679  0.69290237  0.86075435    -0.04000
C542        C  0.64052498  0.70740635  0.86555584     0.08200
C543        C  0.65706242  0.69995728  0.87053137     0.02000
H544        H  0.61590472  0.69343274  0.85565646     0.09700
H545        H  0.66934086  0.70720630  0.87404316     0.08700
N546        N  0.62637523  0.62368106  0.85544267    -0.35100
N547        N  0.63966129  0.61173959  0.85342664    -0.27300
C548        C  0.63251322  0.59500173  0.85289259    -0.02500
C549        C  0.61388734  0.59655016  0.85465128     0.06100
C550        C  0.61038645  0.61485301  0.85623379     0.04200
H551        H  0.64033370  0.58264821  0.85163315     0.09300
H552        H  0.59727430  0.62126521  0.85810493     0.08100
N553        N  0.69534633  0.79787851  0.68350873    -0.26300
N554        N  0.69878326  0.80547002  0.69946353    -0.34100
C555        C  0.71680030  0.80850355  0.70077087     0.02100
C556        C  0.72500649  0.80225966  0.68500596     0.08100
C557        C  0.71104965  0.79555092  0.67442101    -0.05000
H558        H  0.72350356  0.81403302  0.71263836     0.08800
H559        H  0.71220220  0.78939761  0.66110201     0.10000
Cu560      Cu  0.67914992  0.80912014  0.71959489     0.44200
Cu561      Cu  0.66958588  0.79131333  0.67430630     0.42000
Cu562      Cu  0.63387719  0.79375423  0.70729623     0.43900
N563        N  0.65799838  0.80598091  0.73818848    -0.33700
N564        N  0.64190062  0.79929764  0.73378221    -0.27900
C565        C  0.63209590  0.79679053  0.74903293    -0.04000
C566        C  0.64236774  0.80249684  0.76368745     0.08200
C567        C  0.65868634  0.80828947  0.75636292     0.02000
H568        H  0.61853464  0.79115456  0.74941616     0.09700
H569        H  0.67050509  0.81294899  0.76376636     0.08700
N570        N  0.62916928  0.78991294  0.67973353    -0.35100
N571        N  0.64237609  0.78880833  0.66756175    -0.27300
C572        C  0.63503661  0.78726180  0.65084903    -0.02500
C573        C  0.61635050  0.78737993  0.65270618     0.06100
C574        C  0.61304142  0.78911703  0.67111690     0.04200
H575        H  0.64272241  0.78671080  0.63830453     0.09300
H576        H  0.59993362  0.79025911  0.67771752     0.08100
N577        N  0.19593657  0.62810954  0.18093926    -0.26300
N578        N  0.19975888  0.62006603  0.19656366    -0.34100
C579        C  0.21790350  0.61954488  0.19880407     0.02100
C580        C  0.22594144  0.62796616  0.18410658     0.08100
C581        C  0.21164962  0.63331496  0.17304232    -0.05000
H582        H  0.22468411  0.61453840  0.21085766     0.08800
H583        H  0.21258417  0.64065224  0.16035589     0.10000
Cu584      Cu  0.18058080  0.61403916  0.21632321     0.44200
Cu585      Cu  0.16934740  0.63203791  0.17159978     0.42000
Cu586      Cu  0.13523791  0.62949289  0.20689482     0.43900
N587        N  0.16142297  0.61896818  0.23644782    -0.33700
N588        N  0.14524263  0.62601815  0.23300197    -0.27900
C589        C  0.13738586  0.63099261  0.24878394    -0.04000
C590        C  0.14907267  0.62653428  0.26280323     0.08200
C591        C  0.16413525  0.61886392  0.25455722     0.02000
H592        H  0.12431131  0.63764136  0.24992651     0.09700
H593        H  0.17663424  0.61471880  0.26112286     0.08700
N594        N  0.12898465  0.63217064  0.17954584    -0.35100
N595        N  0.14137865  0.63326186  0.16652717    -0.27300
C596        C  0.13282795  0.63469443  0.15035566    -0.02500
C597        C  0.11426518  0.63450887  0.15347492     0.06100
C598        C  0.11228575  0.63285170  0.17206375     0.04200
H599        H  0.13961135  0.63556878  0.13732507     0.09300
H600        H  0.09967563  0.63201948  0.17960380     0.08100
N601        N  0.19410059  0.80918663  0.36534454    -0.26300
N602        N  0.19767652  0.79389110  0.37396507    -0.34100
C603        C  0.21580528  0.79174315  0.37513756     0.02100
C604        C  0.22401712  0.80620451  0.36657467     0.08100
C605        C  0.20989573  0.81699332  0.36045348    -0.05000
H606        H  0.22248167  0.77991493  0.38068374     0.08800
H607        H  0.21100007  0.82940390  0.35275467     0.10000
Cu608      Cu  0.17812228  0.77468939  0.38015929     0.44200
Cu609      Cu  0.16783950  0.81828303  0.36030685     0.42000
Cu610      Cu  0.13273946  0.78407741  0.36433002     0.43900
N611        N  0.15869755  0.75474817  0.37631814    -0.33700
N612        N  0.14251169  0.75798471  0.36915144    -0.27900
C613        C  0.13472401  0.74208374  0.36472036    -0.04000
C614        C  0.14644545  0.72823611  0.36967162     0.08200
C615        C  0.16146201  0.73675158  0.37703848     0.02000
H616        H  0.12182389  0.74072538  0.35778485     0.09700
H617        H  0.17410662  0.73041895  0.38108161     0.08700
N618        N  0.12733800  0.81155733  0.36062131    -0.35100
N619        N  0.14019464  0.82396524  0.35897667    -0.27300
C620        C  0.13235820  0.84032509  0.35698031    -0.02500
C621        C  0.11373231  0.83806846  0.35738529     0.06100
C622        C  0.11095893  0.81973464  0.35972545     0.04200
H623        H  0.13969563  0.85291176  0.35550936     0.09300
H624        H  0.09803061  0.81285115  0.36079544     0.08100
N625        N  0.32879062  0.81179706  0.23424029    -0.26300
N626        N  0.33743557  0.79650340  0.23786715    -0.34100
C627        C  0.33810770  0.79419311  0.25598507     0.02100
C628        C  0.32916225  0.80850462  0.26415092     0.08100
C629        C  0.32336379  0.81942094  0.25000894    -0.05000
H630        H  0.34343156  0.78225826  0.26264286     0.08800
H631        H  0.31541296  0.83171314  0.25106163     0.10000
Cu632      Cu  0.34370932  0.77706244  0.21850172     0.44200
Cu633      Cu  0.32402681  0.82089445  0.20792563     0.42000
Cu634      Cu  0.32658530  0.78589411  0.17358154     0.43900
N635        N  0.33872209  0.75681873  0.19961382    -0.33700
N636        N  0.33108977  0.75995571  0.18362931    -0.27900
C637        C  0.32609871  0.74406770  0.17616506    -0.04000
C638        C  0.33109793  0.73030708  0.18790930     0.08200
C639        C  0.33915302  0.73885762  0.20258269     0.02000
H640        H  0.31888974  0.74267917  0.16341147     0.09700
H641        H  0.34364284  0.73260589  0.21510609     0.08700
N642        N  0.32324087  0.81321567  0.16758711    -0.35100
N643        N  0.32219313  0.82599795  0.18018539    -0.27300
C644        C  0.32014853  0.84215947  0.17200057    -0.02500
C645        C  0.31989633  0.83935821  0.15342277     0.06100
C646        C  0.32189600  0.82091731  0.15103598     0.04200
H647        H  0.31898361  0.85496416  0.17906074     0.09300
H648        H  0.32234921  0.81363012  0.13826513     0.08100
N649        N  0.27535030  0.63008917  0.18545235    -0.26300
N650        N  0.27163660  0.64631963  0.17882175    -0.34100
C651        C  0.25350257  0.64775900  0.17635152     0.02100
C652        C  0.24548314  0.63177760  0.18197959     0.08100
C653        C  0.25971154  0.62096527  0.18775400    -0.05000
H654        H  0.24658554  0.65993143  0.17197327     0.08800
H655        H  0.25873948  0.60757148  0.19358065     0.10000
Cu656      Cu  0.29113710  0.66667008  0.17660668     0.44200
Cu657      Cu  0.30139165  0.62099111  0.19173316     0.42000
Cu658      Cu  0.33567356  0.65493178  0.19566562     0.43900
N659        N  0.31178110  0.68534568  0.18167974    -0.33700
N660        N  0.32732331  0.68120924  0.18979693    -0.27900
C661        C  0.33664025  0.69653582  0.19307507    -0.04000
C662        C  0.32668501  0.71094834  0.18637775     0.08200
C663        C  0.31103526  0.70339197  0.17920639     0.02000
H664        H  0.34970874  0.69712909  0.19980628     0.09700
H665        H  0.29957461  0.71055378  0.17341725     0.08700
N666        N  0.34134061  0.62741385  0.19780080    -0.35100
N667        N  0.32864483  0.61485746  0.19624024    -0.27300
C668        C  0.33650700  0.59840790  0.19729047    -0.02500
C669        C  0.35500417  0.60078055  0.19964889     0.06100
C670        C  0.35764438  0.61929554  0.19989048     0.04200
H671        H  0.32933175  0.58569985  0.19607286     0.09300
H672        H  0.37047053  0.62634436  0.20110192     0.08100
N673        N  0.32561060  0.80585830  0.31332464    -0.26300
N674        N  0.30974207  0.81339231  0.30943345    -0.34100
C675        C  0.30888654  0.81637616  0.29136736     0.02100
C676        C  0.32488744  0.81017870  0.28360111     0.08100
C677        C  0.33511368  0.80353659  0.29787262    -0.05000
H678        H  0.29708579  0.82160030  0.28430823     0.08800
H679        H  0.34836303  0.79718923  0.29706323     0.10000
Cu680      Cu  0.28904944  0.81652862  0.32849870     0.44200
Cu681      Cu  0.33385360  0.79890259  0.33933039     0.42000
Cu682      Cu  0.29947181  0.79920841  0.37376620     0.43900
N683        N  0.26970835  0.81260086  0.34876793    -0.33700
N684        N  0.27340965  0.80521783  0.36474519    -0.27900
C685        C  0.25774278  0.80225644  0.37370252    -0.04000
C686        C  0.24355129  0.80834086  0.36299706     0.08200
C687        C  0.25158441  0.81486871  0.34731609     0.02000
H688        H  0.25675182  0.79589890  0.38691329     0.09700
H689        H  0.24471451  0.81986749  0.33531020     0.08700
N690        N  0.32694856  0.79633447  0.37951896    -0.35100
N691        N  0.33962833  0.79611917  0.36675508    -0.27300
C692        C  0.35611778  0.79564263  0.37469330    -0.02500
C693        C  0.35360633  0.79554468  0.39330447     0.06100
C694        C  0.33501670  0.79600748  0.39596013     0.04200
H695        H  0.36892663  0.79613984  0.36746538     0.09300
H696        H  0.32790479  0.79681681  0.40882524     0.08100
N697        N  0.14765231  0.62848645  0.31215725    -0.26300
N698        N  0.14255658  0.64519744  0.30818967    -0.34100
C699        C  0.14173627  0.64694436  0.28996206     0.02100
C700        C  0.14684988  0.63063340  0.28221546     0.08100
C701        C  0.15062031  0.61929053  0.29662829    -0.05000
H702        H  0.13846034  0.65936026  0.28289367     0.08800
H703        H  0.15512683  0.60536413  0.29590152     0.10000
Cu704      Cu  0.13924451  0.66529553  0.32781062     0.44200
Cu705      Cu  0.15006429  0.61874496  0.33844030     0.42000
Cu706      Cu  0.15139995  0.65229929  0.37406703     0.43900
N707        N  0.14188693  0.68356010  0.34924902    -0.33700
N708        N  0.14764447  0.67903750  0.36569931    -0.27900
C709        C  0.14991714  0.69422281  0.37562775    -0.04000
C710        C  0.14492950  0.70890245  0.36505065     0.08200
C711        C  0.13990570  0.70165736  0.34844335     0.02000
H712        H  0.15479491  0.69455123  0.38951093     0.09700
H713        H  0.13597361  0.70905846  0.33637661     0.08700
N714        N  0.15104385  0.62448111  0.37897343    -0.35100
N715        N  0.15037655  0.61223185  0.36583779    -0.27300
C716        C  0.14934588  0.59562542  0.37326965    -0.02500
C717        C  0.14941058  0.59754741  0.39195784     0.06100
C718        C  0.15048274  0.61595394  0.39516031     0.04200
H719        H  0.14837490  0.58314576  0.36562235     0.09300
H720        H  0.15053731  0.62267240  0.40824902     0.08100
N721        N  0.64161643  0.80631345  0.23236596    -0.26300
N722        N  0.63484015  0.79013592  0.23588992    -0.34100
C723        C  0.63504613  0.78738798  0.25396389     0.02100
C724        C  0.64260880  0.80240580  0.26220336     0.08100
C725        C  0.64667891  0.81415879  0.24814544    -0.05000
H726        H  0.63103665  0.77492359  0.26052401     0.08800
H727        H  0.65306431  0.82728589  0.24926471     0.10000
Cu728      Cu  0.62919453  0.77103311  0.21602205     0.44200
Cu729      Cu  0.64443690  0.81616164  0.20603035     0.42000
Cu730      Cu  0.64547823  0.78135400  0.17088291     0.43900
N731        N  0.63284625  0.75167056  0.19593055    -0.33700
N732        N  0.64023836  0.75515768  0.17990593    -0.27900
C733        C  0.64390195  0.73937495  0.17143979    -0.04000
C734        C  0.63822032  0.72538626  0.18257460     0.08200
C735        C  0.63122548  0.73366422  0.19792778     0.02000
H736        H  0.65059676  0.73816516  0.15838433     0.09700
H737        H  0.62661515  0.72707097  0.21021851     0.08700
N738        N  0.64716119  0.80900166  0.16556836    -0.35100
N739        N  0.64650471  0.82163778  0.17835357    -0.27300
C740        C  0.64707606  0.83804008  0.17042634    -0.02500
C741        C  0.64818552  0.83557281  0.15183224     0.06100
C742        C  0.64820672  0.81706334  0.14916657     0.04200
H743        H  0.64651096  0.85078423  0.17766595     0.09300
H744        H  0.64863489  0.80997303  0.13628266     0.08100
N745        N  0.77499463  0.80734871  0.36637507    -0.26300
N746        N  0.77153795  0.79132727  0.37356656    -0.34100
C747        C  0.75340180  0.78914191  0.37474882     0.02100
C748        C  0.74506058  0.80435402  0.36763124     0.08100
C749        C  0.75913305  0.81560259  0.36239879    -0.05000
H750        H  0.74679684  0.77679158  0.37902535     0.08800
H751        H  0.75794420  0.82853449  0.35562291     0.10000
Cu752      Cu  0.79131363  0.77152067  0.37723165     0.44200
Cu753      Cu  0.80118416  0.81648428  0.36102387     0.42000
Cu754      Cu  0.83565410  0.78149764  0.35798321     0.43900
N755        N  0.81105443  0.75196497  0.37215804    -0.33700
N756        N  0.82665998  0.75537672  0.36387550    -0.27900
C757        C  0.83502685  0.73955936  0.36011292    -0.04000
C758        C  0.82431479  0.72559508  0.36662980     0.08200
C759        C  0.80926980  0.73395742  0.37422188     0.02000
H760        H  0.84781885  0.73830434  0.35294147     0.09700
H761        H  0.79737262  0.72739848  0.37979207     0.08700
N762        N  0.84130680  0.80909057  0.35594310    -0.35100
N763        N  0.82868263  0.82183387  0.35722058    -0.27300
C764        C  0.83669431  0.83817524  0.35627667    -0.02500
C765        C  0.85519537  0.83556896  0.35430051     0.06100
C766        C  0.85770573  0.81702452  0.35413229     0.04200
H767        H  0.82959111  0.85097452  0.35723305     0.09300
H768        H  0.87049568  0.80983052  0.35310351     0.08100
N769        N  0.77210309  0.62872860  0.18347060    -0.26300
N770        N  0.76878186  0.62244098  0.19997777    -0.34100
C771        C  0.75070066  0.62081979  0.20224093     0.02100
C772        C  0.74225302  0.62663771  0.18650906     0.08100
C773        C  0.75617299  0.63166031  0.17491706    -0.05000
H774        H  0.74417877  0.61672883  0.21476872     0.08800
H775        H  0.75482652  0.63718669  0.16136139     0.10000
Cu776      Cu  0.78868499  0.61918609  0.21965956     0.44200
Cu777      Cu  0.79822781  0.63300872  0.17357798     0.42000
Cu778      Cu  0.83394572  0.63392667  0.20779560     0.43900
N779        N  0.80929621  0.62283530  0.23852156    -0.33700
N780        N  0.82547713  0.62949590  0.23445373    -0.27900
C781        C  0.83476144  0.63238707  0.25000303    -0.04000
C782        C  0.82397986  0.62693090  0.26442615     0.08200
C783        C  0.80798118  0.62092854  0.25666352     0.02000
H784        H  0.84828434  0.63807930  0.25075116     0.09700
H785        H  0.79590774  0.61641965  0.26372907     0.08700
N786        N  0.83881578  0.63453787  0.17988231    -0.35100
N787        N  0.82580919  0.63416842  0.16742453    -0.27300
C788        C  0.83347980  0.63383861  0.15077525    -0.02500
C789        C  0.85214094  0.63402322  0.15292130     0.06100
C790        C  0.85510176  0.63445279  0.17147650     0.04200
H791        H  0.82601998  0.63321746  0.13810340     0.09300
H792        H  0.86809674  0.63440151  0.17837763     0.08100
N793        N  0.69281129  0.62580566  0.18597711    -0.26300
N794        N  0.69593788  0.64139478  0.17774059    -0.34100
C795        C  0.71400362  0.64362534  0.17590747     0.02100
C796        C  0.72262246  0.62889423  0.18362958     0.08100
C797        C  0.70882712  0.61789791  0.18997559    -0.05000
H798        H  0.72039441  0.65562420  0.17046183     0.08800
H799        H  0.71031254  0.60523375  0.19719119     0.10000
Cu800      Cu  0.67590274  0.66053903  0.17256462     0.44200
Cu801      Cu  0.66690435  0.61620565  0.19155662     0.42000
Cu802      Cu  0.63145058  0.65021047  0.19024369     0.43900
N803        N  0.65555871  0.67978808  0.17587200    -0.33700
N804        N  0.63975604  0.67622200  0.18366846    -0.27900
C805        C  0.63083182  0.69186958  0.18665241    -0.04000
C806        C  0.64140139  0.70589173  0.18011029     0.08200
C807        C  0.65695208  0.69776310  0.17332823     0.02000
H808        H  0.61783611  0.69298766  0.19347014     0.09700
H809        H  0.66894117  0.70450202  0.16818987     0.08700
N810        N  0.62643211  0.62269673  0.19273382    -0.35100
N811        N  0.63938536  0.61024035  0.19317009    -0.27300
C812        C  0.63165898  0.59374995  0.19359143    -0.02500
C813        C  0.61302121  0.59603530  0.19341363     0.06100
C814        C  0.61011653  0.61447376  0.19287412     0.04200
H815        H  0.63906518  0.58108569  0.19357492     0.09300
H816        H  0.59715725  0.62140007  0.19216767     0.08100
N817        N  0.82520226  0.62550990  0.31381121    -0.26300
N818        N  0.83348969  0.64108230  0.31079895    -0.34100
C819        C  0.83542521  0.64339918  0.29272858     0.02100
C820        C  0.82771261  0.62871737  0.28399133     0.08100
C821        C  0.82131172  0.61767917  0.29774154    -0.05000
H822        H  0.84060706  0.65555516  0.28641659     0.08800
H823        H  0.81376214  0.60522580  0.29617371     0.10000
Cu824      Cu  0.83770729  0.66025347  0.33102579     0.44200
Cu825      Cu  0.81838174  0.61630954  0.33959955     0.42000
Cu826      Cu  0.81802887  0.65006292  0.37525508     0.43900
N827        N  0.83284887  0.67961377  0.35095429    -0.33700
N828        N  0.82446162  0.67619861  0.36651105    -0.27900
C829        C  0.82059421  0.69203788  0.37480076    -0.04000
C830        C  0.82712595  0.70599675  0.36407306     0.08200
C831        C  0.83487222  0.69761504  0.34912786     0.02000
H832        H  0.81321077  0.69331846  0.38747111     0.09700
H833        H  0.84039626  0.70415624  0.33719322     0.08700
N834        N  0.81434267  0.62242151  0.38001911    -0.35100
N835        N  0.81441714  0.61015697  0.36686892    -0.27300
C836        C  0.81271452  0.59357869  0.37423564    -0.02500
C837        C  0.81151325  0.59549912  0.39288412     0.06100
C838        C  0.81259384  0.61390980  0.39614600     0.04200
H839        H  0.81286624  0.58105105  0.36660149     0.09300
H840        H  0.81260423  0.62058441  0.40925821     0.08100
N841        N  0.64534587  0.80077620  0.31149631    -0.26300
N842        N  0.66092466  0.80894483  0.30784949    -0.34100
C843        C  0.66205759  0.81158996  0.28972027     0.02100
C844        C  0.64657941  0.80447032  0.28170335     0.08100
C845        C  0.63638054  0.79766043  0.29587720    -0.05000
H846        H  0.67371016  0.81728071  0.28281797     0.08800
H847        H  0.62345688  0.79075509  0.29490812     0.10000
Cu848      Cu  0.68092231  0.81339610  0.32754531     0.44200
Cu849      Cu  0.63653677  0.79408992  0.33736899     0.42000
Cu850      Cu  0.66951461  0.79629328  0.37281575     0.43900
N851        N  0.69969863  0.81033607  0.34866303    -0.33700
N852        N  0.69568589  0.80297883  0.36457883    -0.27900
C853        C  0.71115349  0.80028052  0.37400318    -0.04000
C854        C  0.72554904  0.80655575  0.36371652     0.08200
C855        C  0.71782275  0.81289881  0.34777042     0.02000
H856        H  0.71189302  0.79385054  0.38719659     0.09700
H857        H  0.72496500  0.81781451  0.33590104     0.08700
N858        N  0.64206000  0.79186239  0.37772275    -0.35100
N859        N  0.62986148  0.79095324  0.36453820    -0.27300
C860        C  0.61318865  0.78917411  0.37189396    -0.02500
C861        C  0.61507744  0.78890743  0.39058254     0.06100
C862        C  0.63349029  0.79068688  0.39386934     0.04200
H863        H  0.60063221  0.78879650  0.36422989     0.09300
H864        H  0.64009870  0.79170651  0.40698050     0.08100
N865        N  0.77288709  0.30827980  0.17979832    -0.26300
N866        N  0.76978023  0.31755435  0.19491532    -0.34100
C867        C  0.75172139  0.31969471  0.19700596     0.02100
C868        C  0.74307014  0.31107271  0.18273951     0.08100
C869        C  0.75686578  0.30398120  0.17208632    -0.05000
H870        H  0.74534685  0.32563983  0.20887089     0.08800
H871        H  0.75537025  0.29567735  0.16004360     0.10000
Cu872      Cu  0.78938311  0.32270806  0.21460224     0.44200
Cu873      Cu  0.79860301  0.30070845  0.17088552     0.42000
Cu874      Cu  0.83241381  0.30119344  0.20601749     0.43900
N875        N  0.80827324  0.31738080  0.23494209    -0.33700
N876        N  0.82343838  0.30822642  0.23184166    -0.27900
C877        C  0.83114113  0.30386463  0.24784291    -0.04000
C878        C  0.82045789  0.31081426  0.26168524     0.08200
C879        C  0.80610281  0.31938990  0.25304684     0.02000
H880        H  0.84331535  0.29574692  0.24929444     0.09700
H881        H  0.79426346  0.32535783  0.25944300     0.08700
N882        N  0.83862134  0.29775665  0.17869742    -0.35100
N883        N  0.82616856  0.29746403  0.16571029    -0.27300
C884        C  0.83453648  0.29663434  0.14942503    -0.02500
C885        C  0.85308574  0.29644090  0.15241231     0.06100
C886        C  0.85525197  0.29715081  0.17105509     0.04200
H887        H  0.82765082  0.29691489  0.13642061     0.09300
H888        H  0.86792678  0.29789205  0.17849110     0.08100
N889        N  0.82467287  0.17743021  0.35772578    -0.26300
N890        N  0.80907169  0.18095145  0.36600754    -0.34100
C891        C  0.80771837  0.19890997  0.36877340     0.02100
C892        C  0.82302888  0.20706488  0.36159733     0.08100
C893        C  0.83345677  0.19308763  0.35463746    -0.05000
H894        H  0.79586766  0.20563635  0.37432661     0.08800
H895        H  0.84622588  0.19424133  0.34742436     0.10000
Cu896      Cu  0.78869248  0.16183683  0.36979138     0.44200
Cu897      Cu  0.83298099  0.15159847  0.35028478     0.42000
Cu898      Cu  0.79783326  0.11775223  0.35030575     0.43900
N899        N  0.76884305  0.14218307  0.36588687    -0.33700
N900        N  0.77211027  0.12654051  0.35773196    -0.27900
C901        C  0.75627800  0.11788857  0.35496770    -0.04000
C902        C  0.74240477  0.12845412  0.36195528     0.08200
C903        C  0.75081820  0.14373897  0.36883080     0.02000
H904        H  0.75494963  0.10500344  0.34809537     0.09700
H905        H  0.74424208  0.15557075  0.37453008     0.08700
N906        N  0.82503753  0.11187577  0.34590425    -0.35100
N907        N  0.83797213  0.12428983  0.34589726    -0.27300
C908        C  0.85420570  0.11608206  0.34381903    -0.02500
C909        C  0.85123788  0.09769734  0.34244856     0.06100
C910        C  0.83266689  0.09543516  0.34383478     0.04200
H911        H  0.86718937  0.12294587  0.34384001     0.09300
H912        H  0.82528133  0.08279024  0.34387502     0.08100
N913        N  0.64905943  0.17655831  0.18291622    -0.26300
N914        N  0.64043143  0.17982530  0.19838556    -0.34100
C915        C  0.63758645  0.19776059  0.19994593     0.02100
C916        C  0.64503599  0.20615190  0.18488821     0.08100
C917        C  0.65226262  0.19234402  0.17441304    -0.05000
H918        H  0.63159746  0.20428739  0.21169808     0.08800
H919        H  0.65958234  0.19368293  0.16171917     0.10000
Cu920      Cu  0.63574323  0.16021473  0.21809372     0.44200
Cu921      Cu  0.65638379  0.15084621  0.17418075     0.42000
Cu922      Cu  0.65334705  0.11555945  0.20787104     0.43900
N923        N  0.63840245  0.13980429  0.23736801    -0.33700
N924        N  0.64586141  0.12388381  0.23379716    -0.27900
C925        C  0.64826397  0.11484350  0.24949738    -0.04000
C926        C  0.64173967  0.12546275  0.26357140     0.08200
C927        C  0.63552866  0.14115878  0.25541628     0.02000
H928        H  0.65475460  0.10174344  0.25062564     0.09700
H929        H  0.63052791  0.15317565  0.26221645     0.08700
N930        N  0.65880922  0.11068120  0.18059674    -0.35100
N931        N  0.66002757  0.12362925  0.16825060    -0.27300
C932        C  0.66243948  0.11605177  0.15175072    -0.02500
C933        C  0.66277143  0.09750995  0.15391219     0.06100
C934        C  0.66040743  0.09451316  0.17229269     0.04200
H935        H  0.66316526  0.12346769  0.13909148     0.09300
H936        H  0.65924377  0.08157229  0.17904828     0.08100
N937        N  0.64332412  0.25534931  0.18418445    -0.26300
N938        N  0.65944814  0.25240190  0.17674029    -0.34100
C939        C  0.66205669  0.23446157  0.17496751     0.02100
C940        C  0.64699243  0.22570912  0.18192257     0.08100
C941        C  0.63540184  0.23932501  0.18770602    -0.05000
H942        H  0.67452848  0.22825121  0.17022627     0.08800
H943        H  0.62241020  0.23770939  0.19441120     0.10000
Cu944      Cu  0.67866766  0.27253281  0.17291985     0.44200
Cu945      Cu  0.63339369  0.28106644  0.19008661     0.42000
Cu946      Cu  0.66757153  0.31602771  0.19292255     0.43900
N947        N  0.69753625  0.29292098  0.17716314    -0.33700
N948        N  0.69375767  0.30826989  0.18565879    -0.27900
C949        C  0.70933171  0.31739375  0.18849332    -0.04000
C950        C  0.72349999  0.30740743  0.18118090     0.08200
C951        C  0.71554934  0.29201452  0.17407468     0.02000
H952        H  0.71029088  0.33018974  0.19559500     0.09700
H953        H  0.72245746  0.28049996  0.16811482     0.08700
N954        N  0.63985539  0.32104604  0.19529037    -0.35100
N955        N  0.62730977  0.30829260  0.19401787    -0.27300
C956        C  0.61072927  0.31606003  0.19473852    -0.02500
C957        C  0.61302782  0.33451584  0.19658678     0.06100
C958        C  0.63160075  0.33725563  0.19687351     0.04200
H959        H  0.59799359  0.30884843  0.19353555     0.09300
H960        H  0.63860962  0.35009071  0.19761874     0.08100
N961        N  0.64083550  0.12482551  0.31304051    -0.26300
N962        N  0.65632440  0.11625721  0.30984579    -0.34100
C963        C  0.65839685  0.11417339  0.29176741     0.02100
C964        C  0.64366475  0.12209960  0.28318847     0.08100
C965        C  0.63281718  0.12876406  0.29705678    -0.05000
H966        H  0.67046232  0.10873671  0.28531862     0.08800
H967        H  0.62039618  0.13650306  0.29562772     0.10000
Cu968      Cu  0.67596488  0.11210786  0.32968003     0.44200
Cu969      Cu  0.63220469  0.13202588  0.33896523     0.42000
Cu970      Cu  0.66704143  0.13293231  0.37362887     0.43900
N971        N  0.69600952  0.11801577  0.34863992    -0.33700
N972        N  0.69294640  0.12679045  0.36405466    -0.27900
C973        C  0.70900967  0.13148257  0.37149005    -0.04000
C974        C  0.72277122  0.12510512  0.36033721     0.08200
C975        C  0.71406552  0.11656697  0.34605268     0.02000
H976        H  0.71053357  0.13932506  0.38383482     0.09700
H977        H  0.72035379  0.11088792  0.33401132     0.08700
N978        N  0.63961151  0.13728794  0.37902443    -0.35100
N979        N  0.62690744  0.13703064  0.36626751    -0.27300
C980        C  0.61055365  0.13974342  0.37405612    -0.02500
C981        C  0.61313985  0.14182186  0.39253920     0.06100
C982        C  0.63165993  0.14016048  0.39529963     0.04200
H983        H  0.59773391  0.13981633  0.36683320     0.09300
H984        H  0.63879237  0.14065424  0.40816508     0.08100
N985        N  0.82334960  0.25621713  0.36233378    -0.26300
N986        N  0.83024285  0.25308360  0.34600405    -0.34100
C987        C  0.83224058  0.23511529  0.34372474     0.02100
C988        C  0.82600021  0.22657104  0.35924225     0.08100
C989        C  0.82039650  0.24032731  0.37073141    -0.05000
H990        H  0.83653183  0.22871041  0.33118747     0.08800
H991        H  0.81409596  0.23888594  0.38394993     0.10000
Cu992      Cu  0.83284464  0.27303506  0.32629211     0.44200
Cu993      Cu  0.81726801  0.28193178  0.37186591     0.42000
Cu994      Cu  0.81505857  0.31742349  0.33782997     0.43900
N995        N  0.82782777  0.29324225  0.30729973    -0.33700
N996        N  0.82022399  0.30900174  0.31128743    -0.32700
C997        C  0.81660545  0.31789006  0.29569346    -0.04000
C998        C  0.82250882  0.30731182  0.28128563     0.08200
C999        C  0.82959055  0.29184453  0.28913442     0.02000
H1000       H  0.81006779  0.33099290  0.29490866     0.09700
H1001       H  0.83477046  0.28002759  0.28211835     0.08700
N1002       N  0.81238187  0.32200314  0.36565329    -0.35100
N1003       N  0.81317628  0.30901275  0.37800790    -0.27300
C1004       C  0.81130949  0.31635644  0.39467295    -0.02500
C1005       C  0.80922397  0.33478603  0.39265525     0.06100
C1006       C  0.80999218  0.33798677  0.37416149     0.04200
H1007       H  0.81159127  0.30883307  0.40728823     0.09300
H1008       H  0.80902046  0.35093760  0.36738885     0.08100
N1009       N  0.14570768  0.30837504  0.23333437    -0.26300
N1010       N  0.16124340  0.31686920  0.23633041    -0.34100
C1011       C  0.16426617  0.31763998  0.25438994     0.02100
C1012       C  0.15007829  0.30897904  0.26311116     0.08100
C1013       C  0.13858805  0.30324265  0.24937577    -0.05000
H1014       H  0.17645430  0.32300793  0.26060831     0.08800
H1015       H  0.12619510  0.29553030  0.25088869     0.10000
Cu1016     Cu  0.17933950  0.32354876  0.21574761     0.44200
Cu1017     Cu  0.13540999  0.30317202  0.20754338     0.42000
Cu1018     Cu  0.16825061  0.30540969  0.17126131     0.43900
N1019       N  0.19810209  0.32042048  0.19488636    -0.33700
N1020       N  0.19431047  0.31250600  0.17918364    -0.27900
C1021       C  0.20995416  0.30871152  0.17045591    -0.04000
C1022       C  0.22421773  0.31476231  0.18107821     0.08200
C1023       C  0.21623584  0.32222525  0.19638492     0.02000
H1024       H  0.21089573  0.30123153  0.15782169     0.09700
H1025       H  0.22314367  0.32688052  0.20851467     0.08700
N1026       N  0.14084362  0.30058418  0.16701009    -0.35100
N1027       N  0.12871768  0.29985715  0.18029277    -0.27300
C1028       C  0.11207895  0.29745991  0.17302803    -0.02500
C1029       C  0.11395884  0.29661385  0.15434940     0.06100
C1030       C  0.13228872  0.29865685  0.15094538     0.04200
H1031       H  0.09956564  0.29679538  0.18074188     0.09300
H1032       H  0.13888013  0.29915594  0.13779340     0.08100
N1033       N  0.32061435  0.17754769  0.17938914    -0.26300
N1034       N  0.32847349  0.18114498  0.19518315    -0.34100
C1035       C  0.33056351  0.19915373  0.19679690     0.02100
C1036       C  0.32334154  0.20727420  0.18147654     0.08100
C1037       C  0.31709149  0.19322064  0.17074478    -0.05000
H1038       H  0.33557644  0.20590325  0.20886207     0.08800
H1039       H  0.30998452  0.19431909  0.15790672     0.10000
Cu1040     Cu  0.33189108  0.16215206  0.21570461     0.44200
Cu1041     Cu  0.31363196  0.15162165  0.17097658     0.42000
Cu1042     Cu  0.30955747  0.11927351  0.20715543     0.43900
N1043       N  0.32638154  0.14324451  0.23583834    -0.33700
N1044       N  0.31726464  0.12812859  0.23279563    -0.27900
C1045       C  0.31389839  0.11995552  0.24877485    -0.04000
C1046       C  0.32142248  0.13031449  0.26250732     0.08200
C1047       C  0.32927491  0.14495682  0.25385228     0.02000
H1048       H  0.30635387  0.10749870  0.25027754     0.09700
H1049       H  0.33579910  0.15644296  0.26022451     0.08700
N1050       N  0.30531542  0.11279908  0.18002883    -0.35100
N1051       N  0.30708510  0.12462140  0.16665554    -0.27300
C1052       C  0.30461694  0.11606250  0.15065642    -0.02500
C1053       C  0.30107801  0.09807077  0.15422997     0.06100
C1054       C  0.30164181  0.09641006  0.17292762     0.04200
H1055       H  0.30577186  0.12237767  0.13743647     0.09300
H1056       H  0.30006662  0.08413881  0.18077072     0.08100
N1057       N  0.14408892  0.17450653  0.35470839    -0.26300
N1058       N  0.15911678  0.17746926  0.36415572    -0.34100
C1059       C  0.16045289  0.19528082  0.36771425     0.02100
C1060       C  0.14571674  0.20393744  0.35990434     0.08100
C1061       C  0.13566189  0.19040535  0.35169479    -0.05000
H1062       H  0.17189970  0.20158149  0.37443386     0.08800
H1063       H  0.12333313  0.19202038  0.34382416     0.10000
Cu1064     Cu  0.17878565  0.15784214  0.36896725     0.44200
Cu1065     Cu  0.13586371  0.14905766  0.34603293     0.42000
Cu1066     Cu  0.16985148  0.11414077  0.34864934     0.43900
N1067       N  0.19839050  0.13779869  0.36587751    -0.33700
N1068       N  0.19525489  0.12227423  0.35748118    -0.27900
C1069       C  0.21108815  0.11345551  0.35510138    -0.04000
C1070       C  0.22480323  0.12380489  0.36257894     0.08200
C1071       C  0.21631529  0.13912189  0.36935274     0.02000
H1072       H  0.21255538  0.10072038  0.34796289     0.09700
H1073       H  0.22282273  0.15090587  0.37517093     0.08700
N1074       N  0.14297071  0.10910853  0.34213079    -0.35100
N1075       N  0.13044453  0.12193820  0.34110306    -0.27300
C1076       C  0.11413850  0.11422274  0.33816548    -0.02500
C1077       C  0.11663715  0.09572447  0.33728240     0.06100
C1078       C  0.13500759  0.09288816  0.33988109     0.04200
H1079       H  0.10135359  0.12147353  0.33761010     0.09300
H1080       H  0.14194556  0.08001006  0.34093235     0.08100
N1081       N  0.27413203  0.12365804  0.36433677    -0.26300
N1082       N  0.27134225  0.11489250  0.34888980    -0.34100
C1083       C  0.25335553  0.11258482  0.34654950     0.02100
C1084       C  0.24444103  0.12057668  0.36105655     0.08100
C1085       C  0.25798863  0.12748940  0.37206752    -0.05000
H1086       H  0.24719090  0.10705130  0.33439220     0.08800
H1087       H  0.25623920  0.13541899  0.38433083     0.10000
Cu1088     Cu  0.29132271  0.11129833  0.32933463     0.44200
Cu1089     Cu  0.29958544  0.13168301  0.37315313     0.42000
Cu1090     Cu  0.33293637  0.13639807  0.33777130     0.43900
N1091       N  0.30927406  0.11908328  0.30908634    -0.33700
N1092       N  0.32367278  0.12939835  0.31199705    -0.27900
C1093       C  0.33049278  0.13468804  0.29586208    -0.04000
C1094       C  0.31998643  0.12716746  0.28220179     0.08200
C1095       C  0.30672220  0.11730101  0.29105109     0.02000
H1096       H  0.34200473  0.14362299  0.29422446     0.09700
H1097       H  0.29536630  0.11031508  0.28488084     0.08700
N1098       N  0.33886247  0.13979633  0.36520835    -0.35100
N1099       N  0.32652133  0.13797191  0.37817448    -0.27300
C1100       C  0.33458621  0.13986056  0.39448728    -0.02500
C1101       C  0.35283009  0.14304389  0.39160052     0.06100
C1102       C  0.35517191  0.14290798  0.37294545     0.04200
H1103       H  0.32775368  0.13850735  0.40745200     0.09300
H1104       H  0.36781054  0.14441985  0.36556495     0.08100
N1105       N  0.14560409  0.25305617  0.36283209    -0.26300
N1106       N  0.13850543  0.25061508  0.34647003    -0.34100
C1107       C  0.13642996  0.23278633  0.34344187     0.02100
C1108       C  0.14283480  0.22355768  0.35847335     0.08100
C1109       C  0.14859211  0.23678640  0.37049663    -0.05000
H1110       H  0.13203360  0.22695663  0.33067067     0.08800
H1111       H  0.15505171  0.23473188  0.38355541     0.10000
Cu1112     Cu  0.13612065  0.27099812  0.32729725     0.44200
Cu1113     Cu  0.15200019  0.27840533  0.37336352     0.42000
Cu1114     Cu  0.15763041  0.31314985  0.33918623     0.43900
N1115       N  0.14265251  0.29075752  0.30843925    -0.33700
N1116       N  0.15179394  0.30560011  0.31255706    -0.27900
C1117       C  0.15579392  0.31449094  0.29708290    -0.04000
C1118       C  0.14855678  0.30487936  0.28262496     0.08200
C1119       C  0.14030020  0.28995088  0.29030812     0.02000
H1120       H  0.16330694  0.32703925  0.29642407     0.09700
H1121       H  0.13374294  0.27892010  0.28319846     0.08700
N1122       N  0.15797591  0.31826465  0.36702093    -0.35100
N1123       N  0.15577322  0.30562652  0.37956450    -0.27300
C1124       C  0.15484436  0.31359038  0.39605582    -0.02500
C1125       C  0.15656300  0.33205701  0.39369465     0.06100
C1126       C  0.15850451  0.33457466  0.37518496     0.04200
H1127       H  0.15232300  0.30653199  0.40869081     0.09300
H1128       H  0.15939361  0.34735207  0.36808259     0.08100
N1129       N  0.32325790  0.25639131  0.18163613    -0.26300
N1130       N  0.30684535  0.25323067  0.17498205    -0.34100
C1131       C  0.30473776  0.23524164  0.17287822     0.02100
C1132       C  0.32048596  0.22676217  0.17874658     0.08100
C1133       C  0.33187643  0.24054659  0.18427606    -0.05000
H1134       H  0.29224399  0.22877423  0.16865079     0.08800
H1135       H  0.34521822  0.23914879  0.19032088     0.10000
Cu1136     Cu  0.28713230  0.27331539  0.17216784     0.44200
Cu1137     Cu  0.33289594  0.28191123  0.18817260     0.42000
Cu1138     Cu  0.29932838  0.31709965  0.19150409     0.43900
N1139       N  0.26897975  0.29473949  0.17547285    -0.33700
N1140       N  0.27327932  0.31022018  0.18344028    -0.27900
C1141       C  0.25809819  0.32011920  0.18583884    -0.04000
C1142       C  0.24359742  0.31053983  0.17881739     0.08200
C1143       C  0.25094758  0.29454879  0.17229921     0.02000
H1144       H  0.25758425  0.33304806  0.19275122     0.09700
H1145       H  0.24356363  0.28307393  0.16692865     0.08700
N1146       N  0.32678381  0.32142121  0.19582919    -0.35100
N1147       N  0.33920799  0.30854057  0.19430728    -0.27300
C1148       C  0.35582054  0.31588671  0.19634846    -0.02500
C1149       C  0.35362124  0.33420172  0.19933997     0.06100
C1150       C  0.33511806  0.33731307  0.19891142     0.04200
H1151       H  0.36851224  0.30855453  0.19508044     0.09300
H1152       H  0.32825454  0.35023397  0.19997243     0.08100
O1153       O  0.50053824  0.44641246  0.18042490    -0.71900
O1154       O  0.46259619  0.48595705  0.18343536    -0.72900
O1155       O  0.50121774  0.48494454  0.18101868    -0.61500
O1156       O  0.46192586  0.44735741  0.18262528    -0.69900
O1157       O  0.46364307  0.44683094  0.21282513    -0.69500
O1158       O  0.50299367  0.48452083  0.21121713    -0.60700
O1159       O  0.46436517  0.48542537  0.21361519    -0.73200
O1160       O  0.50220601  0.44603282  0.21061831    -0.72000
Cu1161     Cu  0.48149403  0.46619141  0.18081170     1.04600
Cu1162     Cu  0.48335459  0.46568585  0.21312632     1.04300
C1163       C  0.50728265  0.44004018  0.19511636     0.94300
C1164       C  0.45760908  0.49192362  0.19900140     0.93400
C1165       C  0.50824216  0.49062173  0.19584168     0.85600
C1166       C  0.45673365  0.44111571  0.19794819     0.91800
O1167       O  0.15579860  0.48442998  0.54105401    -0.71900
O1168       O  0.15623265  0.44705616  0.50101052    -0.72900
O1169       O  0.15565513  0.48554877  0.50234953    -0.61500
O1170       O  0.15659125  0.44595589  0.53963418    -0.69900
O1171       O  0.12637060  0.44526346  0.54000577    -0.69500
O1172       O  0.12542908  0.48518031  0.50241192    -0.60700
O1173       O  0.12601324  0.44649495  0.50116553    -0.73200
O1174       O  0.12558074  0.48394746  0.54128605    -0.72000
Cu1175     Cu  0.15709740  0.46576539  0.52100662     1.04600
Cu1176     Cu  0.12475821  0.46520986  0.52122378     1.04300
C1177       C  0.14063006  0.49008230  0.54740460     0.94300
C1178       C  0.14121970  0.44086207  0.49488223     0.93400
C1179       C  0.14046085  0.49157530  0.49651270     0.85600
C1180       C  0.14173274  0.43938357  0.54565387     0.91800
O1181       O  0.50298720  0.15780838  0.54245267    -0.71900
O1182       O  0.46206281  0.16058821  0.50621884    -0.72900
O1183       O  0.46441379  0.15866905  0.54481328    -0.61500
O1184       O  0.50067502  0.15983219  0.50381499    -0.69900
O1185       O  0.50008699  0.12980806  0.50228134    -0.69500
O1186       O  0.46372676  0.12864238  0.54339209    -0.60700
O1187       O  0.46146959  0.13055307  0.50476541    -0.73200
O1188       O  0.50237885  0.12777700  0.54098395    -0.72000
Cu1189     Cu  0.48256777  0.16027227  0.52437631     1.04600
Cu1190     Cu  0.48190001  0.12813202  0.52279221     1.04300
C1191       C  0.50899099  0.14238275  0.54748423     0.94300
C1192       C  0.45539038  0.14596837  0.49981151     0.93400
C1193       C  0.45836845  0.14351783  0.55050210     0.85600
C1194       C  0.50605214  0.14501805  0.49662601     0.91800
O1195       O  0.81942059  0.44531081  0.54386190    -0.71900
O1196       O  0.82238773  0.48223996  0.50373663    -0.72900
O1197       O  0.82173106  0.48367621  0.54250532    -0.61500
O1198       O  0.82006771  0.44380671  0.50527950    -0.69900
O1199       O  0.78988090  0.44566585  0.50474089    -0.69500
O1200       O  0.79154597  0.48551941  0.54195843    -0.60700
O1201       O  0.79221119  0.48406044  0.50321249    -0.73200
O1202       O  0.78923587  0.44717428  0.54328653    -0.72000
Cu1203     Cu  0.82197170  0.46371272  0.52386654     1.04600
Cu1204     Cu  0.78966277  0.46568888  0.52327867     1.04300
C1205       C  0.80385375  0.44040134  0.54975365     0.94300
C1206       C  0.80774604  0.48889677  0.49716397     0.93400
C1207       C  0.80689683  0.49077054  0.54811316     0.85600
C1208       C  0.80469778  0.43844353  0.49926811     0.91800
O1209       O  0.50315408  0.78367437  0.54169341    -0.71900
O1210       O  0.46584575  0.78793115  0.50205011    -0.72900
O1211       O  0.50433560  0.78512652  0.50306355    -0.61500
O1212       O  0.46459218  0.78643409  0.54051929    -0.69900
O1213       O  0.46657154  0.81641414  0.54181619    -0.69500
O1214       O  0.50646548  0.81510074  0.50417057    -0.60700
O1215       O  0.46780171  0.81792202  0.50320324    -0.73200
O1216       O  0.50525615  0.81364733  0.54294686    -0.72000
Cu1217     Cu  0.48443262  0.78475607  0.52179456     1.04600
Cu1218     Cu  0.48662348  0.81684656  0.52309188     1.04300
C1219       C  0.51005220  0.79798956  0.54852318     0.94300
C1220       C  0.46088788  0.80353887  0.49651405     0.93400
C1221       C  0.51153368  0.79986367  0.49765115     0.85600
C1222       C  0.45926826  0.80160466  0.54693630     0.91800
O1223       O  0.46528080  0.44469117  0.86445604    -0.71900
O1224       O  0.50447394  0.48264532  0.86699091    -0.72900
O1225       O  0.46564780  0.48318694  0.86669278    -0.61500
O1226       O  0.50408381  0.44423786  0.86475524    -0.69900
O1227       O  0.50433635  0.44592281  0.83455662    -0.69500
O1228       O  0.46601253  0.48479023  0.83649630    -0.60700
O1229       O  0.50475673  0.48427575  0.83679122    -0.73200
O1230       O  0.46562569  0.44640919  0.83426337    -0.72000
Cu1231     Cu  0.48486153  0.46362860  0.86679881     1.04600
Cu1232     Cu  0.48518693  0.46540632  0.83447931     1.04300
C1233       C  0.45929771  0.43965802  0.84893237     0.94300
C1234       C  0.51078819  0.48933326  0.85227727     0.93400
C1235       C  0.45980588  0.49005986  0.85185325     0.85600
C1236       C  0.51025135  0.43904854  0.84934910     0.91800
O1237       O  0.00285363  0.98678143  0.32817193    -0.71900
O1238       O  0.96462583  0.94787708  0.32993417    -0.72900
O1239       O  0.96416562  0.98627095  0.32668211    -0.61500
O1240       O  0.00332094  0.94845459  0.33137361    -0.69900
O1241       O  0.00221830  0.95097863  0.36150302    -0.69500
O1242       O  0.96308953  0.98876150  0.35681804    -0.60700
O1243       O  0.96355324  0.95044121  0.36005627    -0.73200
O1244       O  0.00173803  0.98931078  0.35830109    -0.72000
Cu1245     Cu  0.98378274  0.96726631  0.32797419     1.04600
Cu1246     Cu  0.98260220  0.96997316  0.36022339     1.04300
C1247       C  0.00830584  0.99407733  0.34295840     0.94300
C1248       C  0.95813609  0.94305313  0.34530391     0.93400
C1249       C  0.95749624  0.99340827  0.34105282     0.85600
C1250       C  0.00887959  0.94379275  0.34715123     0.91800
O1251       O  0.00318681  0.98778728  0.68695435    -0.71900
O1252       O  0.96332565  0.95059401  0.68612419    -0.72900
O1253       O  0.96446256  0.98898478  0.68883550    -0.61500
O1254       O  0.00193329  0.94932552  0.68425292    -0.69900
O1255       O  0.00330236  0.94723829  0.71438807    -0.69500
O1256       O  0.96580179  0.98693170  0.71897018    -0.60700
O1257       O  0.96466322  0.94850178  0.71626819    -0.73200
O1258       O  0.00455778  0.98572444  0.71709410    -0.72000
Cu1259     Cu  0.98319248  0.96925635  0.68548784     1.04600
Cu1260     Cu  0.98464616  0.96703551  0.71774196     1.04300
C1261       C  0.01008628  0.99260102  0.70215446     0.94300
C1262       C  0.95777811  0.94372155  0.70105150     0.93400
C1263       C  0.95919317  0.99410028  0.70460022     0.85600
C1264       C  0.00839840  0.94200971  0.69860509     0.91800
O1265       O  0.31495315  0.98904857  0.04189207    -0.71900
O1266       O  0.31868553  0.95161340  0.00222201    -0.72900
O1267       O  0.31380969  0.98988347  0.00317328    -0.61500
O1268       O  0.31961876  0.95092077  0.04102749    -0.69900
O1269       O  0.28961483  0.94733171  0.04167755    -0.69500
O1270       O  0.28381228  0.98627257  0.00388764    -0.60700
O1271       O  0.28870020  0.94794400  0.00283524    -0.73200
O1272       O  0.28494921  0.98548650  0.04266308    -0.72000
Cu1273     Cu  0.31781385  0.97049078  0.02202801     1.04600
Cu1274     Cu  0.28571114  0.96662480  0.02276825     1.04300
C1275       C  0.29941440  0.99305088  0.04855745     0.94300
C1276       C  0.30432048  0.94388060  0.99633628     0.93400
C1277       C  0.29790239  0.99422582  0.99767449     0.85600
C1278       C  0.30547923  0.94314730  0.04738262     0.91800
O1279       O  0.00474445  0.30745650  0.00275389    -0.71900
O1280       O  0.96485318  0.30885805  0.04018722    -0.72900
O1281       O  0.00346652  0.30873145  0.04140807    -0.61500
O1282       O  0.96610793  0.30749566  0.00149993    -0.69900
O1283       O  0.96600472  0.27743797  0.00241675    -0.69500
O1284       O  0.00338589  0.27867013  0.04233933    -0.60700
O1285       O  0.96472920  0.27880679  0.04119653    -0.73200
O1286       O  0.00470996  0.27740171  0.00366610    -0.72000
Cu1287     Cu  0.98478389  0.30918263  0.02142450     1.04600
Cu1288     Cu  0.98469996  0.27701063  0.02243768     1.04300
C1289       C  0.01095996  0.29222754  0.99733915     0.94300
C1290       C  0.95862487  0.29408824  0.04662968     0.93400
C1291       C  0.00927234  0.29387259  0.04809974     0.85600
C1292       C  0.96023705  0.29230203  0.99569365     0.91800
O1293       O  0.67319441  0.98472978  0.04384561    -0.71900
O1294       O  0.67303500  0.94718205  0.00415856    -0.72900
O1295       O  0.67669876  0.98544207  0.00537485    -0.61500
O1296       O  0.66959638  0.94643508  0.04279213    -0.69900
O1297       O  0.63959876  0.94931283  0.04030398    -0.69500
O1298       O  0.64670724  0.98838991  0.00281088    -0.60700
O1299       O  0.64304036  0.95013704  0.00164573    -0.73200
O1300       O  0.64319720  0.98766612  0.04130346    -0.72000
Cu1301     Cu  0.67417824  0.96582430  0.02414406     1.04600
Cu1302     Cu  0.64207336  0.96896200  0.02142626     1.04300
C1303       C  0.65824935  0.99214078  0.04869548     0.94300
C1304       C  0.65799886  0.94286972  0.99662387     0.93400
C1305       C  0.66280485  0.99303843  0.99826842     0.85600
C1306       C  0.65353524  0.94180776  0.04746299     0.91800
O1307       O  0.96347253  0.64490757  0.04037306    -0.71900
O1308       O  0.00295515  0.64443862  0.00239390    -0.72900
O1309       O  0.96413183  0.64374103  0.00166504    -0.61500
O1310       O  0.00212322  0.64555903  0.04118725    -0.69900
O1311       O  0.00273486  0.61551580  0.04201594    -0.69500
O1312       O  0.96463904  0.61369945  0.00243717    -0.60700
O1313       O  0.00358400  0.61439616  0.00312054    -0.73200
O1314       O  0.96401049  0.61485950  0.04123612    -0.72000
Cu1315     Cu  0.98316592  0.64569727  0.02135209     1.04600
Cu1316     Cu  0.98377808  0.61354889  0.02221198     1.04300
C1317       C  0.95759809  0.62997582  0.04678114     0.94300
C1318       C  0.00947431  0.62938816  0.99681727     0.93400
C1319       C  0.95831796  0.62847171  0.99596894     0.85600
C1320       C  0.00826673  0.63082938  0.04788602     0.91800
C1321       C  0.39252478  0.37345992  0.20010888     0.18000
C1322       C  0.41111377  0.36923013  0.20053828    -0.11100
C1323       C  0.42406494  0.38306964  0.20004169    -0.11900
C1324       C  0.41847999  0.40119270  0.19910729     0.19600
C1325       C  0.39989168  0.40540848  0.19861914    -0.14000
C1326       C  0.38694642  0.39157497  0.19911616    -0.12200
C1327       C  0.43180009  0.41544633  0.19871930     0.00600
C1328       C  0.44305533  0.42729290  0.19842011    -0.32200
C1329       C  0.37915849  0.35926033  0.20046084     0.01900
C1330       C  0.36767361  0.34764059  0.20030731    -0.33900
H1331       H  0.41557998  0.35526793  0.20124462     0.13000
H1332       H  0.43840392  0.37965112  0.20040262     0.12800
H1333       H  0.39541772  0.41936589  0.19787335     0.12700
H1334       H  0.37260826  0.39499512  0.19871620     0.11700
C1335       C  0.14451343  0.40070440  0.45655412     0.18000
C1336       C  0.14860412  0.38316902  0.46259202    -0.11100
C1337       C  0.15111393  0.36909547  0.45003489    -0.11900
C1338       C  0.14956065  0.37243704  0.43132383     0.19600
C1339       C  0.14534413  0.38994434  0.42527280    -0.14000
C1340       C  0.14283493  0.40402891  0.43783877    -0.12200
C1341       C  0.15232663  0.35795452  0.41835884     0.00600
C1342       C  0.15447547  0.34598892  0.40731318    -0.32200
C1343       C  0.14252439  0.41527961  0.46957331     0.01900
C1344       C  0.14153911  0.42715497  0.48089158    -0.33900
H1345       H  0.14997617  0.38040210  0.47700388     0.13000
H1346       H  0.15434337  0.35564043  0.45491198     0.12800
H1347       H  0.14408008  0.39272067  0.41085251     0.12700
H1348       H  0.13971294  0.41750839  0.43296235     0.11700
C1349       C  0.41623366  0.14697488  0.46047383     0.18000
C1350       C  0.42209603  0.14812662  0.44236145    -0.11100
C1351       C  0.40943875  0.14770135  0.42815280    -0.11900
C1352       C  0.39083927  0.14612452  0.43197888     0.19600
C1353       C  0.38495438  0.14499587  0.45009539    -0.14000
C1354       C  0.39762298  0.14541956  0.46431674    -0.12200
C1355       C  0.37781792  0.14546882  0.41734423     0.00600
C1356       C  0.36665586  0.14460728  0.40534226    -0.32200
C1357       C  0.42940407  0.14708776  0.47499692     0.01900
C1358       C  0.44100257  0.14681903  0.48661420    -0.33900
H1359       H  0.43645201  0.14927835  0.43922668     0.13000
H1360       H  0.41415158  0.14854084  0.41420672     0.12800
H1361       H  0.37060418  0.14373026  0.45321165     0.12700
H1362       H  0.39292889  0.14446477  0.47826129     0.11700
C1363       C  0.07651702  0.05767462  0.33811445     0.18000
C1364       C  0.07044778  0.04876289  0.32240928    -0.11100
C1365       C  0.05643129  0.03603096  0.32356144    -0.11900
C1366       C  0.04841479  0.03214940  0.34041875     0.19600
C1367       C  0.05451238  0.04104347  0.35612985    -0.14000
C1368       C  0.06852722  0.05377349  0.35497764    -0.12200
C1369       C  0.03403800  0.01897143  0.34157392     0.00600
C1370       C  0.02216523  0.00774214  0.34231511    -0.32200
C1371       C  0.09082919  0.07090093  0.33697974     0.01900
C1372       C  0.10267727  0.08215801  0.33665859    -0.33900
H1373       H  0.07652077  0.05166928  0.30930079     0.13000
H1374       H  0.05184866  0.02922114  0.31132800     0.12800
H1375       H  0.04844357  0.03814121  0.36924140     0.12700
H1376       H  0.07311187  0.06058460  0.36721146     0.11700
C1377       C  0.29746318  0.05749674  0.11654340     0.18000
C1378       C  0.31120606  0.04431764  0.11612084    -0.11100
C1379       C  0.31117922  0.03095305  0.10259015    -0.11900
C1380       C  0.29740473  0.03068145  0.08939265     0.19600
C1381       C  0.28354876  0.04373960  0.08994102    -0.14000
C1382       C  0.28357694  0.05710821  0.10347348    -0.12200
C1383       C  0.29770961  0.01727393  0.07508616     0.00600
C1384       C  0.29826468  0.00620926  0.06297279    -0.32200
C1385       C  0.29795465  0.07168858  0.13003840     0.01900
C1386       C  0.29901397  0.08371068  0.14113585    -0.33900
H1387       H  0.32203422  0.04448850  0.12612606     0.13000
H1388       H  0.32197726  0.02095167  0.10231608     0.12800
H1389       H  0.27283432  0.04368916  0.07981493     0.12700
H1390       H  0.27289569  0.06723427  0.10363012     0.11700
C1391       C  0.04769986  0.29427262  0.08818785     0.18000
C1392       C  0.04256370  0.29524928  0.10653494    -0.11100
C1393       C  0.05583952  0.29523117  0.12018395    -0.11900
C1394       C  0.07430877  0.29422736  0.11554458     0.19600
C1395       C  0.07944035  0.29319477  0.09719928    -0.14000
C1396       C  0.06616777  0.29321328  0.08355344    -0.12200
C1397       C  0.08800724  0.29457144  0.12954894     0.00600
C1398       C  0.09969730  0.29525850  0.14104393    -0.32200
C1399       C  0.03404886  0.29432638  0.07413083     0.01900
C1400       C  0.02268698  0.29423342  0.06228894    -0.33900
H1401       H  0.02832454  0.29606020  0.11027535     0.13000
H1402       H  0.05171796  0.29606723  0.13432061     0.12800
H1403       H  0.09368211  0.29244659  0.09345286     0.12700
H1404       H  0.07029626  0.29244020  0.06941460     0.11700
C1405       C  0.80423486  0.37216669  0.43336621     0.18000
C1406       C  0.80869218  0.36748631  0.45130670    -0.11100
C1407       C  0.80821691  0.38061080  0.46506135    -0.11900
C1408       C  0.80327993  0.39846609  0.46092424     0.19600
C1409       C  0.79853725  0.40306205  0.44304795    -0.14000
C1410       C  0.79901400  0.38995028  0.42930580    -0.12200
C1411       C  0.80356819  0.41221434  0.47483421     0.00600
C1412       C  0.80405529  0.42408599  0.48610682    -0.32200
C1413       C  0.80555856  0.35890501  0.41903241     0.01900
C1414       C  0.80708992  0.34793295  0.40694904    -0.33900
H1415       H  0.81275367  0.35377666  0.45460475     0.13000
H1416       H  0.81191116  0.37690105  0.47883681     0.12800
H1417       H  0.79470073  0.41682235  0.43969493     0.12700
H1418       H  0.79554587  0.39372707  0.41549047     0.11700
C1419       C  0.54499544  0.14610487  0.45689740     0.18000
C1420       C  0.56272068  0.14113695  0.46187870    -0.11100
C1421       C  0.57667164  0.14105157  0.44891735    -0.11900
C1422       C  0.57300928  0.14594308  0.43086787     0.19600
C1423       C  0.55530892  0.15104972  0.42588286    -0.14000
C1424       C  0.54133541  0.15113616  0.43886516    -0.12200
C1425       C  0.58730629  0.14521438  0.41742536     0.00600
C1426       C  0.59922013  0.14397507  0.40616718    -0.32200
C1427       C  0.53066084  0.14588460  0.47033090     0.01900
C1428       C  0.51918458  0.14548793  0.48210116    -0.33900
H1429       H  0.56573396  0.13723031  0.47576377     0.13000
H1430       H  0.59027537  0.13703913  0.45293855     0.12800
H1431       H  0.55229129  0.15482191  0.41196106     0.12700
H1432       H  0.52769772  0.15501593  0.43483156     0.11700
C1433       C  0.54620630  0.40033576  0.19481698     0.18000
C1434       C  0.54167579  0.38244730  0.19922631    -0.11100
C1435       C  0.55521065  0.36907985  0.19988550    -0.11900
C1436       C  0.57337283  0.37350687  0.19615414     0.19600
C1437       C  0.57790611  0.39139843  0.19179022    -0.14000
C1438       C  0.56437655  0.40476071  0.19113049    -0.12200
C1439       C  0.58730986  0.35970341  0.19663286     0.00600
C1440       C  0.59901142  0.34818734  0.19677869    -0.32200
C1441       C  0.53230189  0.41418536  0.19430559     0.01900
C1442       C  0.52081951  0.42593053  0.19430551    -0.33900
H1443       H  0.52770133  0.37884083  0.20216046     0.13000
H1444       H  0.55151454  0.35530839  0.20327480     0.12800
H1445       H  0.59188354  0.39501109  0.18887499     0.12700
H1446       H  0.56808352  0.41853321  0.18775907     0.11700
C1447       C  0.66199482  0.05867189  0.11433915     0.18000
C1448       C  0.66608444  0.06266123  0.09615251    -0.11100
C1449       C  0.66499564  0.04911677  0.08285862    -0.11900
C1450       C  0.65980307  0.03152758  0.08768854     0.19600
C1451       C  0.65568056  0.02755709  0.10586589    -0.14000
C1452       C  0.65676961  0.04109427  0.11915284    -0.12200
C1453       C  0.65889686  0.01753058  0.07404830     0.00600
C1454       C  0.65842738  0.00584997  0.06256707    -0.32200
C1455       C  0.66293513  0.07259948  0.12804784     0.01900
C1456       C  0.66322163  0.08406311  0.13975356    -0.33900
H1457       H  0.67009700  0.07621109  0.09226126     0.13000
H1458       H  0.66822444  0.05234201  0.06884671     0.12800
H1459       H  0.65166101  0.01401089  0.10976330     0.12700
H1460       H  0.65353400  0.03786384  0.13316210     0.11700
C1461       C  0.89002708  0.05812988  0.33997097     0.18000
C1462       C  0.90267927  0.05777653  0.32569967    -0.11100
C1463       C  0.91628578  0.04450293  0.32527287    -0.11900
C1464       C  0.91729657  0.03152309  0.33912098     0.19600
C1465       C  0.90458009  0.03182227  0.35333603    -0.14000
C1466       C  0.89098088  0.04509044  0.35376319    -0.12200
C1467       C  0.93152719  0.01808877  0.33898330     0.00600
C1468       C  0.94342916  0.00683594  0.33954617    -0.32200
C1469       C  0.87622952  0.07198574  0.34058709     0.01900
C1470       C  0.86479025  0.08369348  0.34128588    -0.33900
H1471       H  0.90208044  0.06780319  0.31497395     0.13000
H1472       H  0.92605683  0.04442319  0.31423042     0.12800
H1473       H  0.90524608  0.02187169  0.36413076     0.12700
H1474       H  0.88128628  0.04523927  0.36487410     0.11700
C1475       C  0.91975814  0.29616624  0.08640281     0.18000
C1476       C  0.91574508  0.28056090  0.09641822    -0.11100
C1477       C  0.90248759  0.28108064  0.11007375    -0.11900
C1478       C  0.89313981  0.29720428  0.11381877     0.19600
C1479       C  0.89726869  0.31288944  0.10394273    -0.14000
C1480       C  0.91055119  0.31236977  0.09026611    -0.12200
C1481       C  0.87909616  0.29743922  0.12752716     0.00600
C1482       C  0.86723651  0.29705770  0.13888950    -0.32200
C1483       C  0.93325712  0.29546818  0.07215596     0.01900
C1484       C  0.94468978  0.29473597  0.06036458    -0.33900
H1485       H  0.92278893  0.26797021  0.09360135     0.13000
H1486       H  0.89942812  0.26887605  0.11761664     0.12800
H1487       H  0.89014546  0.32544641  0.10671512     0.12700
H1488       H  0.91356151  0.32454205  0.08265175     0.11700
C1489       C  0.54968565  0.79586418  0.45739692     0.18000
C1490       C  0.55300610  0.77876027  0.44977220    -0.11100
C1491       C  0.56582972  0.77674438  0.43580697    -0.11900
C1492       C  0.57539212  0.79183245  0.42939102     0.19600
C1493       C  0.57197257  0.80893998  0.43693286    -0.14000
C1494       C  0.55916293  0.81095361  0.45088742    -0.12200
C1495       C  0.58896308  0.78983773  0.41534901     0.00600
C1496       C  0.60072075  0.78897108  0.40390336    -0.32200
C1497       C  0.53656333  0.79790433  0.47186090     0.01900
C1498       C  0.52535292  0.79918717  0.48381321    -0.33900
H1499       H  0.54573816  0.76699385  0.45466449     0.13000
H1500       H  0.56835268  0.76344595  0.43009960     0.12800
H1501       H  0.57928439  0.82070219  0.43209485     0.12700
H1502       H  0.55670063  0.82424567  0.45663520     0.11700
C1503       C  0.80937821  0.52704523  0.45685443     0.18000
C1504       C  0.82478714  0.52947073  0.44586887    -0.11100
C1505       C  0.82504703  0.54315898  0.43268232    -0.11900
C1506       C  0.80990357  0.55452302  0.43039029     0.19600
C1507       C  0.79443872  0.55195677  0.44124791    -0.14000
C1508       C  0.79417874  0.53828099  0.45442093    -0.12200
C1509       C  0.81030904  0.56896631  0.41713820     0.00600
C1510       C  0.81072311  0.58113767  0.40615462    -0.32200
C1511       C  0.80920567  0.51329031  0.47081767     0.01900
C1512       C  0.80872408  0.50206592  0.48276438    -0.33900
H1513       H  0.83662961  0.52088575  0.44758606     0.13000
H1514       H  0.83708897  0.54496589  0.42438137     0.12800
H1515       H  0.78263534  0.56061241  0.43962642     0.12700
H1516       H  0.78217758  0.53655975  0.46280050     0.11700
C1517       C  0.54742303  0.52962334  0.19397337     0.18000
C1518       C  0.54921630  0.54169361  0.20858397    -0.11100
C1519       C  0.56251168  0.55519069  0.20812811    -0.11900
C1520       C  0.57409316  0.55669700  0.19306124     0.19600
C1521       C  0.57225662  0.54468062  0.17839379    -0.14000
C1522       C  0.55894508  0.53116859  0.17884974    -0.12200
C1523       C  0.58791382  0.57048066  0.19279565     0.00600
C1524       C  0.59942174  0.58209098  0.19298469    -0.32200
C1525       C  0.53376667  0.51569140  0.19455101     0.01900
C1526       C  0.52219788  0.50415996  0.19518020    -0.33900
H1527       H  0.54037077  0.54064471  0.22033253     0.13000
H1528       H  0.56379942  0.56440805  0.21953719     0.12800
H1529       H  0.58112931  0.54572192  0.16666564     0.12700
H1530       H  0.55766436  0.52192487  0.16746147     0.11700
C1531       C  0.89104939  0.63219473  0.11307523     0.18000
C1532       C  0.90912756  0.62819604  0.11767859    -0.11100
C1533       C  0.92258069  0.62768659  0.10418195    -0.11900
C1534       C  0.91805194  0.63116427  0.08598194     0.19600
C1535       C  0.89997573  0.63517734  0.08137722    -0.14000
C1536       C  0.88651997  0.63568684  0.09487666    -0.12200
C1537       C  0.93193035  0.63062202  0.07207226     0.00600
C1538       C  0.94360190  0.63022854  0.06048786    -0.32200
C1539       C  0.87720464  0.63278168  0.12701653     0.01900
C1540       C  0.86571892  0.63333365  0.13877881    -0.33900
H1541       H  0.91282038  0.62548543  0.13168877     0.13000
H1542       H  0.93649615  0.62458293  0.10793401     0.12800
H1543       H  0.89628911  0.63790676  0.06736950     0.12700
H1544       H  0.87260731  0.63880936  0.09113043     0.11700
C1545       C  0.91984934  0.90306219  0.34851656     0.18000
C1546       C  0.90202435  0.90599875  0.34238498    -0.11100
C1547       C  0.88901781  0.89223826  0.34374839    -0.11900
C1548       C  0.89373369  0.87543329  0.35124983     0.19600
C1549       C  0.91154153  0.87252794  0.35746214    -0.14000
C1550       C  0.92454993  0.88629095  0.35609899    -0.12200
C1551       C  0.88034612  0.86118257  0.35243944     0.00600
C1552       C  0.86899928  0.84938624  0.35329217    -0.32200
C1553       C  0.93328045  0.91722981  0.34707348     0.01900
C1554       C  0.94457854  0.92904628  0.34607349    -0.33900
H1555       H  0.89819220  0.91889991  0.33652884     0.13000
H1556       H  0.87530834  0.89468414  0.33890994     0.12800
H1557       H  0.91537873  0.85962312  0.36330522     0.12700
H1558       H  0.93826508  0.88384597  0.36092370     0.11700
C1559       C  0.64912074  0.90260812  0.08645091     0.18000
C1560       C  0.64134142  0.88573330  0.08256446    -0.11100
C1561       C  0.64109166  0.87213955  0.09582807    -0.11900
C1562       C  0.64862640  0.87531875  0.11307008     0.19600
C1563       C  0.65628372  0.89224018  0.11700038    -0.14000
C1564       C  0.65653301  0.90583238  0.10373871    -0.12200
C1565       C  0.64857581  0.86122314  0.12666806     0.00600
C1566       C  0.64848708  0.84946216  0.13808081    -0.32200
C1567       C  0.64992019  0.91644203  0.07260906     0.01900
C1568       C  0.65120172  0.92799894  0.06106041    -0.33900
H1569       H  0.63559126  0.88304468  0.06925671     0.13000
H1570       H  0.63511403  0.85913503  0.09261142     0.12800
H1571       H  0.66213768  0.89489241  0.13027071     0.12700
H1572       H  0.66261417  0.91879836  0.10692037     0.11700
C1573       C  0.14260267  0.53110688  0.45762890     0.18000
C1574       C  0.12687404  0.53896985  0.45025765    -0.11100
C1575       C  0.12827184  0.55221035  0.43670513    -0.11900
C1576       C  0.14540952  0.55769520  0.43042283     0.19600
C1577       C  0.16114129  0.54980732  0.43776866    -0.14000
C1578       C  0.15974361  0.53656722  0.45132087    -0.12200
C1579       C  0.14685161  0.57155708  0.41665030     0.00600
C1580       C  0.14804180  0.58334514  0.40532361    -0.32200
C1581       C  0.14118256  0.51736800  0.47153149     0.01900
C1582       C  0.14042420  0.50569681  0.48302050    -0.33900
H1583       H  0.11354425  0.53487145  0.45498221     0.13000
H1584       H  0.11600097  0.55819806  0.43116528     0.12800
H1585       H  0.17447281  0.55392108  0.43305941     0.12700
H1586       H  0.17201681  0.53059549  0.45687540     0.11700
C1587       C  0.42089950  0.80324942  0.45811386     0.18000
C1588       C  0.41329538  0.81879588  0.45026586    -0.11100
C1589       C  0.39947861  0.81718828  0.43724344    -0.11900
C1590       C  0.39321239  0.80003494  0.43203355     0.19600
C1591       C  0.40075190  0.78451907  0.43997129    -0.14000
C1592       C  0.41454667  0.78612403  0.45297357    -0.12200
C1593       C  0.37916893  0.79831061  0.41846746     0.00600
C1594       C  0.36748424  0.79686901  0.40702893    -0.32200
C1595       C  0.43522230  0.80470249  0.47141143     0.01900
C1596       C  0.44711860  0.80479966  0.48271892    -0.33900
H1597       H  0.41807127  0.83210910  0.45416045     0.13000
H1598       H  0.39373574  0.82928441  0.43120499     0.12800
H1599       H  0.39601324  0.77119423  0.43606749     0.12700
H1600       H  0.42029908  0.77401375  0.45897734     0.11700
C1601       C  0.39350919  0.56055747  0.20121400     0.18000
C1602       C  0.40763819  0.56049667  0.21405732    -0.11100
C1603       C  0.42063186  0.54655795  0.21399953    -0.11900
C1604       C  0.41959365  0.53257337  0.20109610     0.19600
C1605       C  0.40543389  0.53262648  0.18831066    -0.14000
C1606       C  0.39246022  0.54654440  0.18836817    -0.12200
C1607       C  0.43307092  0.51826155  0.20078849     0.00600
C1608       C  0.44424967  0.50622371  0.20008996    -0.32200
C1609       C  0.38012808  0.57495749  0.20110098     0.01900
C1610       C  0.36875811  0.58682228  0.20061636    -0.33900
H1611       H  0.40863376  0.57122726  0.22407093     0.13000
H1612       H  0.43149547  0.54671619  0.22396346     0.12800
H1613       H  0.40445066  0.52193240  0.17825588     0.12700
H1614       H  0.38163346  0.54639704  0.17836315     0.11700
C1615       C  0.31049456  0.90484817  0.08719774     0.18000
C1616       C  0.32416769  0.90632319  0.10041808    -0.11100
C1617       C  0.32598740  0.89304137  0.11387248    -0.11900
C1618       C  0.31414296  0.87820100  0.11420041     0.19600
C1619       C  0.30037539  0.87680579  0.10107012    -0.14000
C1620       C  0.29855542  0.89008729  0.08761663    -0.12200
C1621       C  0.31617029  0.86439621  0.12793235     0.00600
C1622       C  0.31789584  0.85289885  0.13947784    -0.32200
C1623       C  0.30882639  0.91834891  0.07311945     0.01900
C1624       C  0.30739905  0.92960312  0.06129629    -0.33900
H1625       H  0.33346595  0.91767647  0.10026919     0.13000
H1626       H  0.33666366  0.89430222  0.12395963     0.12800
H1627       H  0.29110933  0.86542638  0.10118719     0.12700
H1628       H  0.28791122  0.88880004  0.07749892     0.11700
C1629       C  0.07490036  0.87764595  0.35346200     0.18000
C1630       C  0.07936324  0.89481383  0.34672875    -0.11100
C1631       C  0.06602754  0.90832960  0.34557661    -0.11900
C1632       C  0.04815186  0.90476134  0.35115256     0.19600
C1633       C  0.04368514  0.88759213  0.35785791    -0.14000
C1634       C  0.05701582  0.87408104  0.35900937    -0.12200
C1635       C  0.03439314  0.91865446  0.34992022     0.00600
C1636       C  0.02279624  0.93019243  0.34875668    -0.32200
C1637       C  0.08863681  0.86371605  0.35474578     0.01900
C1638       C  0.10006872  0.85200279  0.35592260    -0.33900
H1639       H  0.09313164  0.89774813  0.34239113     0.13000
H1640       H  0.06964821  0.92153913  0.34034729     0.12800
H1641       H  0.02991480  0.88465463  0.36218982     0.12700
H1642       H  0.05338552  0.86087267  0.36423299     0.11700
C1643       C  0.07356093  0.63427539  0.11542953     0.18000
C1644       C  0.05974086  0.64739634  0.11501474    -0.11100
C1645       C  0.04618202  0.64665110  0.10160315    -0.11900
C1646       C  0.04636037  0.63278096  0.08853363     0.19600
C1647       C  0.06008724  0.61959947  0.08907912    -0.14000
C1648       C  0.07361902  0.62034371  0.10246335    -0.12200
C1649       C  0.03270066  0.63216290  0.07438976     0.00600
C1650       C  0.02153772  0.63152351  0.06231111    -0.32200
C1651       C  0.08776685  0.63504292  0.12900429     0.01900
C1652       C  0.09988510  0.63507179  0.14013225    -0.33900
H1653       H  0.05950104  0.65822449  0.12497248     0.13000
H1654       H  0.03564871  0.65692724  0.10135733     0.12800
H1655       H  0.06039593  0.60880487  0.07908670     0.12700
H1656       H  0.08418731  0.61010078  0.10264124     0.11700
C1657       C  0.54943663  0.79314475  0.58741759     0.18000
C1658       C  0.56406659  0.80527049  0.58739021    -0.11100
C1659       C  0.57801077  0.80352053  0.60023098    -0.11900
C1660       C  0.57740872  0.78962709  0.61316939     0.19600
C1661       C  0.56280298  0.77746501  0.61317951    -0.14000
C1662       C  0.54885031  0.77921491  0.60032920    -0.12200
C1663       C  0.59151426  0.78817083  0.62670374     0.00600
C1664       C  0.60303678  0.78748785  0.63837510    -0.32200
C1665       C  0.53517510  0.79492107  0.57407562     0.01900
C1666       C  0.52354410  0.79641229  0.56258012    -0.33900
H1667       H  0.56468195  0.81607418  0.57746140     0.13000
H1668       H  0.58920235  0.81303692  0.60012511     0.12800
H1669       H  0.56216393  0.76670465  0.62315426     0.12700
H1670       H  0.53762366  0.76974105  0.60046975     0.11700
C1671       C  0.55066692  0.52776777  0.85416312     0.18000
C1672       C  0.55730020  0.53416750  0.87086469    -0.11100
C1673       C  0.57040560  0.54789272  0.87127616    -0.11900
C1674       C  0.57694345  0.55528853  0.85498361     0.19600
C1675       C  0.57046302  0.54873709  0.83829395    -0.14000
C1676       C  0.55736888  0.53502553  0.83788271    -0.12200
C1677       C  0.59004931  0.56977826  0.85531294     0.00600
C1678       C  0.60089696  0.58201908  0.85515826    -0.32200
C1679       C  0.53675300  0.51403573  0.85370119     0.01900
C1680       C  0.52492409  0.50273189  0.85313720    -0.33900
H1681       H  0.55223597  0.52866289  0.88354486     0.13000
H1682       H  0.57531831  0.55282806  0.88426698     0.12800
H1683       H  0.57542033  0.55433045  0.82560991     0.12700
H1684       H  0.55236351  0.53019591  0.82488711     0.11700
C1685       C  0.80914937  0.53088622  0.58632759     0.18000
C1686       C  0.81328586  0.52676751  0.60447907    -0.11100
C1687       C  0.81445354  0.54061119  0.61744815    -0.11900
C1688       C  0.81148673  0.55863915  0.61233161     0.19600
C1689       C  0.80732000  0.56274897  0.59418713    -0.14000
C1690       C  0.80615209  0.54890853  0.58122117    -0.12200
C1691       C  0.81269664  0.57289877  0.62567613     0.00600
C1692       C  0.81367050  0.58486259  0.63682880    -0.32200
C1693       C  0.80815573  0.51667780  0.57291359     0.01900
C1694       C  0.80749910  0.50485260  0.56159113    -0.33900
H1695       H  0.81564481  0.51288608  0.60858566     0.13000
H1696       H  0.81768076  0.53726902  0.63143489     0.12800
H1697       H  0.80499592  0.57663286  0.59006977     0.12700
H1698       H  0.80295956  0.55225691  0.56722787     0.11700
C1699       C  0.91842493  0.62928201  0.95696827     0.18000
C1700       C  0.90000242  0.62791765  0.96179177    -0.11100
C1701       C  0.88641655  0.62960813  0.94848270    -0.11900
C1702       C  0.89114226  0.63269078  0.93024334     0.19600
C1703       C  0.90956035  0.63387534  0.92541824    -0.14000
C1704       C  0.92312917  0.63218549  0.93871015    -0.12200
C1705       C  0.87718724  0.63475080  0.91648440     0.00600
C1706       C  0.86572555  0.63641640  0.90476476    -0.32200
C1707       C  0.93248070  0.62823326  0.97073966     0.01900
C1708       C  0.94432927  0.62799157  0.98218844    -0.33900
H1709       H  0.89614009  0.62570140  0.97584241     0.13000
H1710       H  0.87224981  0.62862846  0.95242965     0.12800
H1711       H  0.91343415  0.63622194  0.91139280     0.12700
H1712       H  0.93728656  0.63329667  0.93476747     0.11700
C1713       C  0.65607183  0.90505942  0.95604982     0.18000
C1714       C  0.67096530  0.89380245  0.95220920    -0.11100
C1715       C  0.66949771  0.88026507  0.93893601    -0.11900
C1716       C  0.65313029  0.87791217  0.92943416     0.19600
C1717       C  0.63831498  0.88931739  0.93312155    -0.14000
C1718       C  0.63978217  0.90284919  0.94638805    -0.12200
C1719       C  0.65142490  0.86363104  0.91614566     0.00600
C1720       C  0.64985183  0.85159676  0.90512687    -0.32200
C1721       C  0.65730108  0.91854769  0.97019789     0.01900
C1722       C  0.65786113  0.92966419  0.98224241    -0.33900
H1723       H  0.68362772  0.89537174  0.95958778     0.13000
H1724       H  0.68105095  0.87154377  0.93620100     0.12800
H1725       H  0.62559562  0.88764564  0.92586414     0.12700
H1726       H  0.62817192  0.91146050  0.94923618     0.11700
C1727       C  0.91773269  0.90552998  0.69899806     0.18000
C1728       C  0.90422774  0.90673366  0.68558209    -0.11100
C1729       C  0.89080567  0.89338850  0.68429054    -0.11900
C1730       C  0.89081454  0.87876586  0.69641101     0.19600
C1731       C  0.90426222  0.87760959  0.70988712    -0.14000
C1732       C  0.91768515  0.89095514  0.71117866    -0.12200
C1733       C  0.87719066  0.86484936  0.69488893     0.00600
C1734       C  0.86596639  0.85303059  0.69354661    -0.32200
C1735       C  0.93176128  0.91909165  0.70007618     0.01900
C1736       C  0.94359949  0.93037028  0.70068165    -0.33900
H1737       H  0.90413215  0.91792461  0.67607559     0.13000
H1738       H  0.88049260  0.89442300  0.67380595     0.12800
H1739       H  0.90441980  0.86636067  0.71932383     0.12700
H1740       H  0.92806150  0.88986300  0.72159420     0.11700
C1741       C  0.39172698  0.79949429  0.61191803     0.18000
C1742       C  0.40331035  0.78467444  0.60908028    -0.11100
C1743       C  0.41667584  0.78535645  0.59553922    -0.11900
C1744       C  0.41854791  0.80086420  0.58475449     0.19600
C1745       C  0.40683580  0.81562444  0.58745119    -0.14000
C1746       C  0.39345691  0.81494101  0.60100375    -0.12200
C1747       C  0.43269271  0.80167758  0.57118657     0.00600
C1748       C  0.44479606  0.80193690  0.56008444    -0.32200
C1749       C  0.37820988  0.79889274  0.62611914     0.01900
C1750       C  0.36687352  0.79847340  0.63799457    -0.33900
H1751       H  0.40208656  0.77265180  0.61740438     0.13000
H1752       H  0.42563386  0.77385465  0.59357172     0.12800
H1753       H  0.40813423  0.82768076  0.57918864     0.12700
H1754       H  0.38455710  0.82647453  0.60304743     0.11700
C1755       C  0.14197657  0.52987684  0.58632157     0.18000
C1756       C  0.13947079  0.54794094  0.58102371    -0.11100
C1757       C  0.14115569  0.56195508  0.59380074    -0.11900
C1758       C  0.14536819  0.55802328  0.61199170     0.19600
C1759       C  0.14767576  0.53995006  0.61732645    -0.14000
C1760       C  0.14599387  0.52594032  0.60455295    -0.12200
C1761       C  0.14751127  0.57245592  0.62515404     0.00600
C1762       C  0.14939201  0.58424013  0.63645572    -0.32200
C1763       C  0.14093064  0.51548859  0.57296679     0.01900
C1764       C  0.14054682  0.50371904  0.56148992    -0.33900
H1765       H  0.13637948  0.55120251  0.56698821     0.13000
H1766       H  0.13930747  0.57584295  0.58946853     0.12800
H1767       H  0.15090867  0.53669616  0.63133201     0.12700
H1768       H  0.14798718  0.51206464  0.60886050     0.11700
C1769       C  0.42112223  0.52993519  0.85083090     0.18000
C1770       C  0.41150828  0.53551711  0.86635128    -0.11100
C1771       C  0.39856734  0.54942351  0.86511684    -0.11900
C1772       C  0.39515108  0.55784451  0.84835840     0.19600
C1773       C  0.40473653  0.55221797  0.83284401    -0.14000
C1774       C  0.41766553  0.53832303  0.83407725    -0.12200
C1775       C  0.38180128  0.57218217  0.84706342     0.00600
C1776       C  0.37049297  0.58405683  0.84608783    -0.32200
C1777       C  0.43459679  0.51571920  0.85201543     0.01900
C1778       C  0.44604688  0.50395457  0.85234302    -0.33900
H1779       H  0.41403241  0.52915516  0.87938523     0.13000
H1780       H  0.39124495  0.55361350  0.87721631     0.12800
H1781       H  0.40222822  0.55857601  0.81980534     0.12700
H1782       H  0.42498867  0.53414333  0.82197355     0.11700
C1783       C  0.04949299  0.63090182  0.95799374     0.18000
C1784       C  0.06791155  0.63025263  0.96294928    -0.11100
C1785       C  0.08149609  0.63111168  0.94958547    -0.11900
C1786       C  0.07678154  0.63263590  0.93115297     0.19600
C1787       C  0.05836474  0.63340508  0.92620692    -0.14000
C1788       C  0.04478059  0.63254639  0.93957034    -0.12200
C1789       C  0.09079933  0.63306534  0.91733319     0.00600
C1790       C  0.10251896  0.63303942  0.90576211    -0.32200
C1791       C  0.03545672  0.62994131  0.97176820     0.01900
C1792       C  0.02363771  0.62941230  0.98322545    -0.33900
H1793       H  0.07176903  0.62902694  0.97712609     0.13000
H1794       H  0.09566217  0.63049352  0.95361726     0.12800
H1795       H  0.05450634  0.63457363  0.91202518     0.12700
H1796       H  0.03061365  0.63310787  0.93553271     0.11700
C1797       C  0.07236963  0.87378287  0.69173861     0.18000
C1798       C  0.07677252  0.89042615  0.69975576    -0.11100
C1799       C  0.06368360  0.90415484  0.70101137    -0.11900
C1800       C  0.04608078  0.90135857  0.69425165     0.19600
C1801       C  0.04166472  0.88471623  0.68618907    -0.14000
C1802       C  0.05477475  0.87096535  0.68493220    -0.12200
C1803       C  0.03262588  0.91557232  0.69564492     0.00600
C1804       C  0.02155918  0.92762994  0.69696643    -0.32200
C1805       C  0.08594209  0.85968262  0.69060180     0.01900
C1806       C  0.09774672  0.84830262  0.68994733    -0.33900
H1807       H  0.09031850  0.89278115  0.70506041     0.13000
H1808       H  0.06728463  0.91693994  0.70726765     0.12800
H1809       H  0.02811108  0.88237189  0.68090330     0.12700
H1810       H  0.05119436  0.85816526  0.67869463     0.11700
C1811       C  0.30939389  0.90451717  0.95727520     0.18000
C1812       C  0.31294812  0.90879460  0.93902249    -0.11100
C1813       C  0.31467371  0.89499267  0.92600329    -0.11900
C1814       C  0.31286638  0.87680371  0.93113341     0.19600
C1815       C  0.30943876  0.87254204  0.94940148    -0.14000
C1816       C  0.30771461  0.88633089  0.96240830    -0.12200
C1817       C  0.31429555  0.86254517  0.91767415     0.00600
C1818       C  0.31530254  0.85068593  0.90633034    -0.32200
C1819       C  0.30742073  0.91870038  0.97074278     0.01900
C1820       C  0.30583635  0.93030233  0.98228623    -0.33900
H1821       H  0.31431642  0.92277810  0.93484831     0.13000
H1822       H  0.31733164  0.89850480  0.91194275     0.12800
H1823       H  0.30801653  0.85856541  0.95357861     0.12700
H1824       H  0.30500464  0.88280989  0.97645647     0.11700
C1825       C  0.14826370  0.39989122  0.58390959     0.18000
C1826       C  0.13392510  0.39042992  0.59207202    -0.11100
C1827       C  0.13754755  0.37736267  0.60537366    -0.11900
C1828       C  0.15552328  0.37366957  0.61060410     0.19600
C1829       C  0.16987032  0.38309145  0.60241042    -0.14000
C1830       C  0.16624779  0.39615926  0.58910619    -0.12200
C1831       C  0.15913235  0.36028036  0.62441565     0.00600
C1832       C  0.16128577  0.34897417  0.63606911    -0.32200
C1833       C  0.14461864  0.41352958  0.57033795     0.01900
C1834       C  0.14253599  0.42520962  0.55903616    -0.33900
H1835       H  0.11997014  0.39318262  0.58819744     0.13000
H1836       H  0.12633667  0.37017116  0.61160777     0.12800
H1837       H  0.18382140  0.38037206  0.60632574     0.12700
H1838       H  0.17745681  0.40338524  0.58290975     0.11700
C1839       C  0.41951320  0.14445968  0.59036640     0.18000
C1840       C  0.42229725  0.13711381  0.60773116    -0.11100
C1841       C  0.40836714  0.13774418  0.62074834    -0.11900
C1842       C  0.39156462  0.14572639  0.61649470     0.19600
C1843       C  0.38884364  0.15318720  0.59917832    -0.14000
C1844       C  0.40276388  0.15255853  0.58617126    -0.12200
C1845       C  0.37703335  0.14591242  0.62974588     0.00600
C1846       C  0.36496056  0.14553164  0.64091817    -0.32200
C1847       C  0.43370642  0.14363649  0.57678133     0.01900
C1848       C  0.44516954  0.14329681  0.56498406    -0.33900
H1849       H  0.43517485  0.13083031  0.61117049     0.13000
H1850       H  0.41065361  0.13190987  0.63407384     0.12800
H1851       H  0.37593408  0.15937969  0.59569412     0.12700
H1852       H  0.40043345  0.15830347  0.57281371     0.11700
C1853       C  0.41879882  0.40197533  0.84511018     0.18000
C1854       C  0.40184146  0.40520157  0.85324300    -0.11100
C1855       C  0.38809664  0.39215053  0.85220367    -0.11900
C1856       C  0.39121141  0.37578303  0.84302555     0.19600
C1857       C  0.40806096  0.37268888  0.83461719    -0.14000
C1858       C  0.42180925  0.38574522  0.83565463    -0.12200
C1859       C  0.37741506  0.36190729  0.84295363     0.00600
C1860       C  0.36591153  0.35028259  0.84378422    -0.32200
C1861       C  0.43314861  0.41519390  0.84665681     0.01900
C1862       C  0.44514282  0.42628061  0.84788713    -0.33900
H1863       H  0.39931660  0.41770431  0.86054980     0.13000
H1864       H  0.37514392  0.39470955  0.85877684     0.12800
H1865       H  0.41065612  0.36009570  0.82749630     0.12700
H1866       H  0.43483656  0.38310252  0.82926586     0.11700
C1867       C  0.29556428  0.06190139  0.93328123     0.18000
C1868       C  0.28229180  0.04831098  0.93246397    -0.11100
C1869       C  0.28177958  0.03475751  0.94578352    -0.11900
C1870       C  0.29454076  0.03472819  0.95998071     0.19600
C1871       C  0.30758202  0.04849853  0.96094561    -0.14000
C1872       C  0.30809316  0.06202269  0.94765481    -0.12200
C1873       C  0.29476331  0.02032219  0.97323024     0.00600
C1874       C  0.29586414  0.00833699  0.98434636    -0.32200
C1875       C  0.29684057  0.07535785  0.91911436     0.01900
C1876       C  0.29876256  0.08650046  0.90725377    -0.33900
H1877       H  0.27253245  0.04804597  0.92141712     0.13000
H1878       H  0.27162901  0.02418796  0.94486857     0.12800
H1879       H  0.31752644  0.04863362  0.97183007     0.12700
H1880       H  0.31842733  0.07242594  0.94844330     0.11700
C1881       C  0.04907499  0.03197943  0.70290155     0.18000
C1882       C  0.04370324  0.04996760  0.70006964    -0.11100
C1883       C  0.05662016  0.06385514  0.70036524    -0.11900
C1884       C  0.07500202  0.05985371  0.70350301     0.19600
C1885       C  0.08039422  0.04186040  0.70629834    -0.14000
C1886       C  0.06746812  0.02796281  0.70600285    -0.12200
C1887       C  0.08828771  0.07419502  0.70381819     0.00600
C1888       C  0.09936407  0.08624079  0.70392703    -0.32200
C1889       C  0.03568457  0.01772539  0.70266994     0.01900
C1890       C  0.02416235  0.00609510  0.70245589    -0.33900
H1891       H  0.02953540  0.05325528  0.69765370     0.13000
H1892       H  0.05227633  0.07769838  0.69816404     0.12800
H1893       H  0.09456426  0.03858460  0.70871627     0.12700
H1894       H  0.07180355  0.01411811  0.70820630     0.11700
C1895       C  0.07538491  0.29025739  0.92910168     0.18000
C1896       C  0.07046401  0.27422766  0.93798812    -0.11100
C1897       C  0.05781010  0.27466091  0.95223869    -0.11900
C1898       C  0.05000382  0.29112424  0.95770009     0.19600
C1899       C  0.05499581  0.30716621  0.94887397    -0.14000
C1900       C  0.06764690  0.30673297  0.93462638    -0.12200
C1901       C  0.03661659  0.29150173  0.97207142     0.00600
C1902       C  0.02507680  0.29179049  0.98377931    -0.32200
C1903       C  0.08843803  0.28986609  0.91442609     0.01900
C1904       C  0.09957217  0.29000039  0.90233113    -0.33900
H1905       H  0.07637139  0.26141119  0.93388232     0.13000
H1906       H  0.05405271  0.26216429  0.95893182     0.12800
H1907       H  0.04905104  0.31997820  0.95294293     0.12700
H1908       H  0.07136325  0.31922527  0.92790029     0.11700
C1909       C  0.57350223  0.14301957  0.61549631     0.18000
C1910       C  0.57785527  0.14993997  0.59828963    -0.11100
C1911       C  0.56509564  0.14926006  0.58416112    -0.11900
C1912       C  0.54790973  0.14164045  0.58714828     0.19600
C1913       C  0.54355289  0.13471628  0.60435600    -0.14000
C1914       C  0.55631459  0.13539613  0.61848655    -0.12200
C1915       C  0.53462146  0.14129710  0.57270922     0.00600
C1916       C  0.52316682  0.14150488  0.56093295    -0.32200
C1917       C  0.58681428  0.14334164  0.62991464     0.01900
C1918       C  0.59825213  0.14301832  0.64170492    -0.33900
H1919       H  0.59111380  0.15581263  0.59578846     0.13000
H1920       H  0.56861131  0.15470124  0.57093964     0.12800
H1921       H  0.53029660  0.12883609  0.60685311     0.12700
H1922       H  0.55280351  0.12994741  0.63170644     0.11700
C1923       C  0.80067198  0.40073308  0.58818704     0.18000
C1924       C  0.78779719  0.40148305  0.60224999    -0.11100
C1925       C  0.78689079  0.38753392  0.61508143    -0.11900
C1926       C  0.79884558  0.37277804  0.61388019     0.19600
C1927       C  0.81162496  0.37198139  0.59974854    -0.14000
C1928       C  0.81253306  0.38591561  0.58693470    -0.12200
C1929       C  0.79847484  0.35872453  0.62741466     0.00600
C1930       C  0.79916951  0.34704184  0.63882772    -0.32200
C1931       C  0.80173912  0.41510230  0.57501578     0.01900
C1932       C  0.80273924  0.42685283  0.56368760    -0.33900
H1933       H  0.77853939  0.41286355  0.60333505     0.13000
H1934       H  0.77699188  0.38831610  0.62598474     0.12800
H1935       H  0.82097039  0.36066433  0.59872143     0.12700
H1936       H  0.82252219  0.38517670  0.57611015     0.11700
C1937       C  0.54995848  0.40031088  0.84711938     0.18000
C1938       C  0.56516764  0.40153654  0.85856196    -0.11100
C1939       C  0.57872114  0.38821195  0.85794171    -0.11900
C1940       C  0.57714233  0.37359214  0.84586861     0.19600
C1941       C  0.56199155  0.37242482  0.83434936    -0.14000
C1942       C  0.54843912  0.38574800  0.83496949    -0.12200
C1943       C  0.59085665  0.35962344  0.84554849     0.00600
C1944       C  0.60214030  0.34773566  0.84558439    -0.32200
C1945       C  0.53588625  0.41391556  0.84792503     0.01900
C1946       C  0.52412935  0.42533047  0.84862487    -0.33900
H1947       H  0.56650252  0.41273203  0.86800473     0.13000
H1948       H  0.59035792  0.38925117  0.86693255     0.12800
H1949       H  0.56060799  0.36117585  0.82497816     0.12700
H1950       H  0.53675437  0.38465318  0.82604907     0.11700
C1951       C  0.92146508  0.29283112  0.95588422     0.18000
C1952       C  0.90311379  0.29187295  0.96096155    -0.11100
C1953       C  0.88947292  0.29248104  0.94769526    -0.11900
C1954       C  0.89409576  0.29404955  0.92926350     0.19600
C1955       C  0.91244924  0.29512950  0.92417633    -0.14000
C1956       C  0.92610352  0.29452215  0.93745574    -0.12200
C1957       C  0.88002005  0.29422348  0.91560099     0.00600
C1958       C  0.86819857  0.29407714  0.90420010    -0.32200
C1959       C  0.93545215  0.29221044  0.96962429     0.01900
C1960       C  0.94687640  0.29199706  0.98142257    -0.33900
H1961       H  0.89935690  0.29061751  0.97516353     0.13000
H1962       H  0.87534036  0.29163848  0.95179778     0.12800
H1963       H  0.91619443  0.29634873  0.90996803     0.12700
H1964       H  0.94024115  0.29532896  0.93336319     0.11700
C1965       C  0.89169565  0.05930889  0.70735062     0.18000
C1966       C  0.89399721  0.04786552  0.69228376    -0.11100
C1967       C  0.90777714  0.03475030  0.69223013    -0.11900
C1968       C  0.91940745  0.03294306  0.70724220     0.19600
C1969       C  0.91707594  0.04433009  0.72237372    -0.14000
C1970       C  0.90326825  0.05747340  0.72242678    -0.12200
C1971       C  0.93371359  0.01946357  0.70697196     0.00600
C1972       C  0.94548131  0.00801082  0.70614375    -0.32200
C1973       C  0.87758935  0.07298705  0.70711740     0.01900
C1974       C  0.86573038  0.08431530  0.70603949    -0.33900
H1975       H  0.88517503  0.04912548  0.68053841     0.13000
H1976       H  0.90939724  0.02605427  0.68044994     0.12800
H1977       H  0.92594913  0.04308987  0.73408058     0.12700
H1978       H  0.90166444  0.06622354  0.73416721     0.11700
C1979       C  0.66801994  0.03289279  0.96019768     0.18000
C1980       C  0.65218705  0.04203368  0.95485529    -0.11100
C1981       C  0.65299771  0.05541065  0.94145236    -0.11900
C1982       C  0.66964567  0.05975258  0.93328315     0.19600
C1983       C  0.68554279  0.05072877  0.93871127    -0.14000
C1984       C  0.68473055  0.03732003  0.95214901    -0.12200
C1985       C  0.67017025  0.07319382  0.91910283     0.00600
C1986       C  0.66945733  0.08430695  0.90710706    -0.32200
C1987       C  0.66693658  0.01883476  0.97373244     0.01900
C1988       C  0.66529817  0.00704475  0.98496029    -0.33900
H1989       H  0.63919545  0.03873356  0.96096449     0.13000
H1990       H  0.64061799  0.06227446  0.93736028     0.12800
H1991       H  0.69849433  0.05395502  0.93248139     0.12700
H1992       H  0.69706869  0.03034200  0.95616370     0.11700
loop_ 
_geom_bond_atom_site_label_1 
_geom_bond_atom_site_label_2 
_geom_bond_distance 
_geom_bond_site_symmetry_2 
_ccdc_geom_bond_type 
N1            N2   1.322       .  A
N1            C5   1.344       .  A
N1           Cu9   2.071       .  S
N2            C3   1.348       .  A
N2           Cu8   2.078       .  S
C3            C4   1.384       .  A
C3            H6   1.081       .  S
C4            C5   1.381       .  A
C4           C76   1.469       .  S
C5            H7   1.081       .  S
Cu8          N11   2.078       .  S
Cu9          N19   2.072       .  S
Cu10         N12   2.078       .  S
Cu10         N18   2.078       .  S
N11          N12   1.323       .  A
N11          C15   1.344       .  A
N12          C13   1.347       .  A
C13          C14   1.383       .  A
C13          H16   1.082       .  S
C14          C15   1.382       .  A
C14         C124   1.469       .  S
C15          H17   1.082       .  S
N18          N19   1.323       .  A
N18          C22   1.346       .  A
N19          C20   1.346       .  A
C20          C21   1.380       .  A
C20          H23   1.081       .  S
C21          C22   1.381       .  A
C21        C1986   1.438       .  S
C22          H24   1.082       .  S
N25          N26   1.323       .  A
N25          C29   1.345       .  A
N25         Cu33   2.076       .  S
N26          C27   1.346       .  A
N26         Cu32   2.080       .  S
C27          C28   1.383       .  A
C27          H30   1.081       .  S
C28          C29   1.382       .  A
C28         C100   1.470       .  S
C29          H31   1.081       .  S
Cu32         N35   2.080       .  S
Cu33         N43   2.076       .  S
Cu34         N36   2.082       .  S
Cu34         N42   2.082       .  S
N35          N36   1.323       .  A
N35          C39   1.347       .  A
N36          C37   1.346       .  A
C37          C38   1.383       .  A
C37          H40   1.082       .  S
C38          C39   1.384       .  A
C38         C134   1.472       .  S
C39          H41   1.082       .  S
N42          N43   1.322       .  A
N42          C46   1.347       .  A
N43          C44   1.347       .  A
C44          C45   1.381       .  A
C44          H47   1.082       .  S
C45          C46   1.382       .  A
C45        C1974   1.443       .  S
C46          H48   1.082       .  S
N49          N50   1.323       .  A
N49          C53   1.347       .  A
N49         Cu57   2.078       .  S
N50          C51   1.343       .  A
N50         Cu56   2.071       .  S
C51          C52   1.380       .  A
C51          H54   1.082       .  S
C52          C53   1.383       .  A
C52          C86   1.468       .  S
C53          H55   1.081       .  S
Cu56         N59   2.071       .  S
Cu57         N67   2.078       .  S
Cu58         N60   2.073       .  S
Cu58         N66   2.073       .  S
N59          N60   1.322       .  A
N59          C63   1.345       .  A
N60          C61   1.346       .  A
C61          C62   1.382       .  A
C61          H64   1.081       .  S
C62          C63   1.382       .  A
C62         C110   1.468       .  S
C63          H65   1.082       .  S
N66          N67   1.323       .  A
N66          C70   1.345       .  A
N67          C68   1.347       .  A
C68          C69   1.381       .  A
C68          H71   1.081       .  S
C69          C70   1.379       .  A
C69        C1958   1.439       .  S
C70          H72   1.082       .  S
N73          N74   1.323       .  A
N73          C77   1.347       .  A
N73         Cu81   2.079       .  S
N74          C75   1.344       .  A
N74         Cu80   2.073       .  S
C75          C76   1.381       .  A
C75          H78   1.081       .  S
C76          C77   1.383       .  A
C77          H79   1.081       .  S
Cu80         N83   2.073       .  S
Cu81         N91   2.079       .  S
Cu82         N84   2.070       .  S
Cu82         N90   2.070       .  S
N83          N84   1.322       .  A
N83          C87   1.346       .  A
N84          C85   1.344       .  A
C85          C86   1.382       .  A
C85          H88   1.082       .  S
C86          C87   1.382       .  A
C87          H89   1.082       .  S
N90          N91   1.323       .  A
N90          C94   1.346       .  A
N91          C92   1.346       .  A
C92          C93   1.381       .  A
C92          H95   1.082       .  S
C93          C94   1.379       .  A
C93        C1944   1.438       .  S
C94          H96   1.082       .  S
N97          N98   1.323       .  A
N97         C101   1.346       .  A
N97        Cu105   2.074       .  S
N98          C99   1.345       .  A
N98        Cu104   2.077       .  S
C99         C100   1.383       .  A
C99         H102   1.082       .  S
C100        C101   1.382       .  A
C101        H103   1.081       .  S
Cu104       N107   2.077       .  S
Cu105       N115   2.073       .  S
Cu106       N108   2.071       .  S
Cu106       N114   2.071       .  S
N107        N108   1.323       .  A
N107        C111   1.346       .  A
N108        C109   1.345       .  A
C109        C110   1.381       .  A
C109        H112   1.082       .  S
C110        C111   1.383       .  A
C111        H113   1.082       .  S
N114        N115   1.323       .  A
N114        C118   1.345       .  A
N115        C116   1.346       .  A
C116        C117   1.380       .  A
C116        H119   1.082       .  S
C117        C118   1.379       .  A
C117       C1930   1.436       .  S
C118        H120   1.082       .  S
N121        N122   1.323       .  A
N121        C125   1.345       .  A
N121       Cu129   2.075       .  S
N122        C123   1.346       .  A
N122       Cu128   2.078       .  S
C123        C124   1.383       .  A
C123        H126   1.082       .  S
C124        C125   1.382       .  A
C125        H127   1.081       .  S
Cu128       N131   2.078       .  S
Cu129       N139   2.075       .  S
Cu130       N132   2.080       .  S
Cu130       N138   2.079       .  S
N131        N132   1.323       .  A
N131        C135   1.345       .  A
N132        C133   1.347       .  A
C133        C134   1.384       .  A
C133        H136   1.081       .  S
C134        C135   1.383       .  A
C135        H137   1.082       .  S
N138        N139   1.323       .  A
N138        C142   1.346       .  A
N139        C140   1.347       .  A
C140        C141   1.381       .  A
C140        H143   1.082       .  S
C141        C142   1.380       .  A
C141       C1918   1.439       .  S
C142        H144   1.082       .  S
N145        N146   1.323       .  A
N145        C149   1.344       .  A
N145       Cu153   2.072       .  S
N146        C147   1.346       .  A
N146       Cu152   2.075       .  S
C147        C148   1.383       .  A
C147        H150   1.082       .  S
C148        C149   1.381       .  A
C148        C230   1.468       .  S
C149        H151   1.081       .  S
Cu152       N155   2.075       .  S
Cu153       N163   2.072       .  S
Cu154       N156   2.078       .  S
Cu154       N162   2.078       .  S
N155        N156   1.323       .  A
N155        C159   1.347       .  A
N156        C157   1.345       .  A
C157        C158   1.383       .  A
C157        H160   1.081       .  S
C158        C159   1.383       .  A
C158        C278   1.471       .  S
C159        H161   1.082       .  S
N162        N163   1.322       .  A
N162        C166   1.347       .  A
N163        C164   1.345       .  A
C164        C165   1.380       .  A
C164        H167   1.081       .  S
C165        C166   1.382       .  A
C165       C1904   1.440       .  S
C166        H168   1.081       .  S
N169        N170   1.323       .  A
N169        C173   1.347       .  A
N169       Cu177   2.076       .  S
N170        C171   1.344       .  A
N170       Cu176   2.076       .  S
C171        C172   1.381       .  A
C171        H174   1.081       .  S
C172        C173   1.382       .  A
C172        C268   1.468       .  S
C173        H175   1.081       .  S
Cu176       N179   2.076       .  S
Cu177       N187   2.076       .  S
Cu178       N180   2.075       .  S
Cu178       N186   2.075       .  S
N179        N180   1.322       .  A
N179        C183   1.347       .  A
N180        C181   1.345       .  A
C181        C182   1.383       .  A
C181        H184   1.082       .  S
C182        C183   1.384       .  A
C182        C244   1.472       .  S
C183        H185   1.082       .  S
N186        N187   1.323       .  A
N186        C190   1.346       .  A
N187        C188   1.347       .  A
C188        C189   1.381       .  A
C188        H191   1.081       .  S
C189        C190   1.380       .  A
C189       C1888   1.440       .  S
C190        H192   1.081       .  S
N193        N194   1.322       .  A
N193        C197   1.347       .  A
N193       Cu201   2.085       .  S
N194        C195   1.347       .  A
N194       Cu200   2.075       .  S
C195        C196   1.383       .  A
C195        H198   1.081       .  S
C196        C197   1.385       .  A
C196        C220   1.473       .  S
C197        H199   1.081       .  S
Cu200       N203   2.074       .  S
Cu201       N211   2.085       .  S
Cu202       N204   2.076       .  S
Cu202       N210   2.076       .  S
N203        N204   1.323       .  A
N203        C207   1.344       .  A
N204        C205   1.347       .  A
C205        C206   1.383       .  A
C205        H208   1.082       .  S
C206        C207   1.381       .  A
C206        C254   1.468       .  S
C207        H209   1.082       .  S
N210        N211   1.324       .  A
N210        C214   1.346       .  A
N211        C212   1.347       .  A
C212        C213   1.381       .  A
C212        H215   1.081       .  S
C213        C214   1.380       .  A
C213       C1876   1.441       .  S
C214        H216   1.082       .  S
N217        N218   1.323       .  A
N217        C221   1.349       .  A
N217       Cu225   2.091       .  S
N218        C219   1.345       .  A
N218       Cu224   2.071       .  S
C219        C220   1.381       .  A
C219        H222   1.081       .  S
C220        C221   1.386       .  A
C221        H223   1.081       .  S
Cu224       N227   2.071       .  S
Cu225       N235   2.091       .  S
Cu226       N228   2.072       .  S
Cu226       N234   2.072       .  S
N227        N228   1.322       .  A
N227        C231   1.344       .  A
N228        C229   1.346       .  A
C229        C230   1.382       .  A
C229        H232   1.082       .  S
C230        C231   1.382       .  A
C231        H233   1.082       .  S
N234        N235   1.324       .  A
N234        C238   1.346       .  A
N235        C236   1.348       .  A
C236        C237   1.383       .  A
C236        H239   1.081       .  S
C237        C238   1.379       .  A
C237       C1860   1.441       .  S
C238        H240   1.082       .  S
N241        N242   1.324       .  A
N241        C245   1.347       .  A
N241       Cu249   2.086       .  S
N242        C243   1.345       .  A
N242       Cu248   2.072       .  S
C243        C244   1.381       .  A
C243        H246   1.082       .  S
C244        C245   1.384       .  A
C245        H247   1.081       .  S
Cu248       N251   2.072       .  S
Cu249       N259   2.085       .  S
Cu250       N252   2.072       .  S
Cu250       N258   2.072       .  S
N251        N252   1.322       .  A
N251        C255   1.347       .  A
N252        C253   1.344       .  A
C253        C254   1.381       .  A
C253        H256   1.081       .  S
C254        C255   1.383       .  A
C255        H257   1.082       .  S
N258        N259   1.322       .  A
N258        C262   1.346       .  A
N259        C260   1.348       .  A
C260        C261   1.383       .  A
C260        H263   1.081       .  S
C261        C262   1.380       .  A
C261       C1846   1.442       .  S
C262        H264   1.082       .  S
N265        N266   1.322       .  A
N265        C269   1.343       .  A
N265       Cu273   2.070       .  S
N266        C267   1.346       .  A
N266       Cu272   2.075       .  S
C267        C268   1.383       .  A
C267        H270   1.081       .  S
C268        C269   1.381       .  A
C269        H271   1.081       .  S
Cu272       N275   2.076       .  S
Cu273       N283   2.070       .  S
Cu274       N276   2.080       .  S
Cu274       N282   2.079       .  S
N275        N276   1.323       .  A
N275        C279   1.345       .  A
N276        C277   1.347       .  A
C277        C278   1.383       .  A
C277        H280   1.082       .  S
C278        C279   1.382       .  A
C279        H281   1.082       .  S
N282        N283   1.322       .  A
N282        C286   1.347       .  A
N283        C284   1.345       .  A
C284        C285   1.380       .  A
C284        H287   1.082       .  S
C285        C286   1.382       .  A
C285       C1832   1.440       .  S
C286        H288   1.082       .  S
N289        N290   1.322       .  A
N289        C293   1.347       .  A
N289       Cu297   2.074       .  S
N290        C291   1.345       .  A
N290       Cu296   2.077       .  S
C291        C292   1.383       .  A
C291        H294   1.082       .  S
C292        C293   1.382       .  A
C292        C422   1.470       .  S
C293        H295   1.082       .  S
Cu296       N299   2.077       .  S
Cu297       N307   2.075       .  S
Cu298       N300   2.095       .  S
Cu298       N306   2.095       .  S
N299        N300   1.323       .  A
N299        C303   1.346       .  A
N300        C301   1.349       .  A
C301        C302   1.386       .  A
C301        H304   1.081       .  S
C302        C303   1.382       .  A
C302        C374   1.476       .  S
C303        H305   1.081       .  S
N306        N307   1.324       .  A
N306        C310   1.349       .  A
N307        C308   1.346       .  A
C308        C309   1.380       .  A
C308        H311   1.082       .  S
C309        C310   1.384       .  A
C309       C1818   1.445       .  S
C310        H312   1.082       .  S
N313        N314   1.323       .  A
N313        C317   1.346       .  A
N313       Cu321   2.075       .  S
N314        C315   1.345       .  A
N314       Cu320   2.080       .  S
C315        C316   1.383       .  A
C315        H318   1.082       .  S
C316        C317   1.382       .  A
C316        C412   1.469       .  S
C317        H319   1.082       .  S
Cu320       N323   2.080       .  S
Cu321       N331   2.075       .  S
Cu322       N324   2.073       .  S
Cu322       N330   2.073       .  S
N323        N324   1.323       .  A
N323        C327   1.347       .  A
N324        C325   1.344       .  A
C325        C326   1.381       .  A
C325        H328   1.081       .  S
C326        C327   1.383       .  A
C326        C398   1.469       .  S
C327        H329   1.081       .  S
N330        N331   1.322       .  A
N330        C334   1.347       .  A
N331        C332   1.346       .  A
C332        C333   1.381       .  A
C332        H335   1.082       .  S
C333        C334   1.381       .  A
C333       C1806   1.440       .  S
C334        H336   1.082       .  S
N337        N338   1.322       .  A
N337        C341   1.348       .  A
N337       Cu345   2.084       .  S
N338        C339   1.345       .  A
N338       Cu344   2.073       .  S
C339        C340   1.381       .  A
C339        H342   1.082       .  S
C340        C341   1.385       .  A
C340        C388   1.471       .  S
C341        H343   1.081       .  S
Cu344       N347   2.073       .  S
Cu345       N355   2.084       .  S
Cu346       N348   2.086       .  S
Cu346       N354   2.086       .  S
N347        N348   1.323       .  A
N347        C351   1.345       .  A
N348        C349   1.348       .  A
C349        C350   1.385       .  A
C349        H352   1.081       .  S
C350        C351   1.381       .  A
C350        C364   1.471       .  S
C351        H353   1.082       .  S
N354        N355   1.324       .  A
N354        C358   1.348       .  A
N355        C356   1.347       .  A
C356        C357   1.381       .  A
C356        H359   1.081       .  S
C357        C358   1.382       .  A
C357       C1790   1.444       .  S
C358        H360   1.081       .  S
N361        N362   1.323       .  A
N361        C365   1.346       .  A
N361       Cu369   2.077       .  S
N362        C363   1.347       .  A
N362       Cu368   2.084       .  S
C363        C364   1.383       .  A
C363        H366   1.082       .  S
C364        C365   1.383       .  A
C365        H367   1.082       .  S
Cu368       N371   2.084       .  S
Cu369       N379   2.077       .  S
Cu370       N372   2.087       .  S
Cu370       N378   2.087       .  S
N371        N372   1.323       .  A
N371        C375   1.348       .  A
N372        C373   1.347       .  A
C373        C374   1.385       .  A
C373        H376   1.081       .  S
C374        C375   1.384       .  A
C375        H377   1.081       .  S
N378        N379   1.323       .  A
N378        C382   1.348       .  A
N379        C380   1.346       .  A
C380        C381   1.380       .  A
C380        H383   1.082       .  S
C381        C382   1.383       .  A
C381       C1776   1.443       .  S
C382        H384   1.082       .  S
N385        N386   1.323       .  A
N385        C389   1.347       .  A
N385       Cu393   2.084       .  S
N386        C387   1.347       .  A
N386       Cu392   2.078       .  S
C387        C388   1.382       .  A
C387        H390   1.082       .  S
C388        C389   1.383       .  A
C389        H391   1.082       .  S
Cu392       N395   2.078       .  S
Cu393       N403   2.085       .  S
Cu394       N396   2.079       .  S
Cu394       N402   2.080       .  S
N395        N396   1.323       .  A
N395        C399   1.345       .  A
N396        C397   1.347       .  A
C397        C398   1.382       .  A
C397        H400   1.081       .  S
C398        C399   1.382       .  A
C399        H401   1.081       .  S
N402        N403   1.323       .  A
N402        C406   1.348       .  A
N403        C404   1.347       .  A
C404        C405   1.382       .  A
C404        H407   1.082       .  S
C405        C406   1.382       .  A
C405       C1762   1.444       .  S
C406        H408   1.082       .  S
N409        N410   1.323       .  A
N409        C413   1.343       .  A
N409       Cu417   2.067       .  S
N410        C411   1.348       .  A
N410       Cu416   2.086       .  S
C411        C412   1.385       .  A
C411        H414   1.082       .  S
C412        C413   1.380       .  A
C413        H415   1.082       .  S
Cu416       N419   2.086       .  S
Cu417       N427   2.066       .  S
Cu418       N420   2.075       .  S
Cu418       N426   2.075       .  S
N419        N420   1.324       .  A
N419        C423   1.348       .  A
N420        C421   1.344       .  A
C421        C422   1.380       .  A
C421        H424   1.081       .  S
C422        C423   1.384       .  A
C423        H425   1.081       .  S
N426        N427   1.321       .  A
N426        C430   1.347       .  A
N427        C428   1.345       .  A
C428        C429   1.379       .  A
C428        H431   1.081       .  S
C429        C430   1.382       .  A
C429       C1750   1.438       .  S
C430        H432   1.081       .  S
N433        N434   1.323       .  A
N433        C437   1.346       .  A
N433       Cu441   2.074       .  S
N434        C435   1.345       .  A
N434       Cu440   2.075       .  S
C435        C436   1.382       .  A
C435        H438   1.082       .  S
C436        C437   1.382       .  A
C436        C556   1.468       .  S
C437        H439   1.082       .  S
Cu440       N443   2.075       .  S
Cu441       N451   2.074       .  S
Cu442       N444   2.073       .  S
Cu442       N450   2.073       .  S
N443        N444   1.322       .  A
N443        C447   1.346       .  A
N444        C445   1.345       .  A
C445        C446   1.382       .  A
C445        H448   1.081       .  S
C446        C447   1.383       .  A
C446        C518   1.468       .  S
C447        H449   1.082       .  S
N450        N451   1.323       .  A
N450        C454   1.345       .  A
N451        C452   1.346       .  A
C452        C453   1.380       .  A
C452        H455   1.081       .  S
C453        C454   1.380       .  A
C453       C1734   1.438       .  S
C454        H456   1.081       .  S
N457        N458   1.322       .  A
N457        C461   1.346       .  A
N457       Cu465   2.074       .  S
N458        C459   1.346       .  A
N458       Cu464   2.075       .  S
C459        C460   1.383       .  A
C459        H462   1.082       .  S
C460        C461   1.382       .  A
C460        C566   1.469       .  S
C461        H463   1.082       .  S
Cu464       N467   2.075       .  S
Cu465       N475   2.074       .  S
Cu466       N468   2.079       .  S
Cu466       N474   2.079       .  S
N467        N468   1.323       .  A
N467        C471   1.345       .  A
N468        C469   1.347       .  A
C469        C470   1.383       .  A
C469        H472   1.081       .  S
C470        C471   1.381       .  A
C470        C542   1.469       .  S
C471        H473   1.081       .  S
N474        N475   1.323       .  A
N474        C478   1.347       .  A
N475        C476   1.346       .  A
C476        C477   1.380       .  A
C476        H479   1.082       .  S
C477        C478   1.381       .  A
C477       C1720   1.439       .  S
C478        H480   1.082       .  S
N481        N482   1.324       .  A
N481        C485   1.348       .  A
N481       Cu489   2.090       .  S
N482        C483   1.345       .  A
N482       Cu488   2.075       .  S
C483        C484   1.381       .  A
C483        H486   1.082       .  S
C484        C485   1.385       .  A
C484        C508   1.473       .  S
C485        H487   1.081       .  S
Cu488       N491   2.075       .  S
Cu489       N499   2.090       .  S
Cu490       N492   2.076       .  S
Cu490       N498   2.077       .  S
N491        N492   1.322       .  A
N491        C495   1.346       .  A
N492        C493   1.345       .  A
C493        C494   1.382       .  A
C493        H496   1.082       .  S
C494        C495   1.383       .  A
C494        C532   1.469       .  S
C495        H497   1.082       .  S
N498        N499   1.323       .  A
N498        C502   1.347       .  A
N499        C500   1.348       .  A
C500        C501   1.384       .  A
C500        H503   1.081       .  S
C501        C502   1.381       .  A
C501       C1706   1.445       .  S
C502        H504   1.081       .  S
N505        N506   1.323       .  A
N505        C509   1.346       .  A
N505       Cu513   2.080       .  S
N506        C507   1.347       .  A
N506       Cu512   2.080       .  S
C507        C508   1.384       .  A
C507        H510   1.082       .  S
C508        C509   1.383       .  A
C509        H511   1.082       .  S
Cu512       N515   2.079       .  S
Cu513       N523   2.079       .  S
Cu514       N516   2.073       .  S
Cu514       N522   2.073       .  S
N515        N516   1.323       .  A
N515        C519   1.345       .  A
N516        C517   1.346       .  A
C517        C518   1.382       .  A
C517        H520   1.081       .  S
C518        C519   1.382       .  A
C519        H521   1.081       .  S
N522        N523   1.323       .  A
N522        C526   1.346       .  A
N523        C524   1.346       .  A
C524        C525   1.380       .  A
C524        H527   1.082       .  S
C525        C526   1.379       .  A
C525       C1692   1.438       .  S
C526        H528   1.082       .  S
N529        N530   1.323       .  A
N529        C533   1.346       .  A
N529       Cu537   2.073       .  S
N530        C531   1.346       .  A
N530       Cu536   2.080       .  S
C531        C532   1.383       .  A
C531        H534   1.082       .  S
C532        C533   1.382       .  A
C533        H535   1.082       .  S
Cu536       N539   2.079       .  S
Cu537       N547   2.074       .  S
Cu538       N540   2.076       .  S
Cu538       N546   2.077       .  S
N539        N540   1.323       .  A
N539        C543   1.346       .  A
N540        C541   1.345       .  A
C541        C542   1.382       .  A
C541        H544   1.081       .  S
C542        C543   1.383       .  A
C543        H545   1.082       .  S
N546        N547   1.323       .  A
N546        C550   1.347       .  A
N547        C548   1.346       .  A
C548        C549   1.379       .  A
C548        H551   1.082       .  S
C549        C550   1.381       .  A
C549       C1678   1.439       .  S
C550        H552   1.082       .  S
N553        N554   1.323       .  A
N553        C557   1.344       .  A
N553       Cu561   2.069       .  S
N554        C555   1.347       .  A
N554       Cu560   2.083       .  S
C555        C556   1.384       .  A
C555        H558   1.081       .  S
C556        C557   1.380       .  A
C557        H559   1.081       .  S
Cu560       N563   2.083       .  S
Cu561       N571   2.069       .  S
Cu562       N564   2.074       .  S
Cu562       N570   2.073       .  S
N563        N564   1.323       .  A
N563        C567   1.347       .  A
N564        C565   1.345       .  A
C565        C566   1.381       .  A
C565        H568   1.081       .  S
C566        C567   1.384       .  A
C567        H569   1.082       .  S
N570        N571   1.322       .  A
N570        C574   1.345       .  A
N571        C572   1.346       .  A
C572        C573   1.380       .  A
C572        H575   1.082       .  S
C573        C574   1.380       .  A
C573       C1664   1.437       .  S
C574        H576   1.082       .  S
N577        N578   1.324       .  A
N577        C581   1.349       .  A
N577       Cu585   2.091       .  S
N578        C579   1.344       .  A
N578       Cu584   2.073       .  S
C579        C580   1.381       .  A
C579        H582   1.082       .  S
C580        C581   1.386       .  A
C580        C652   1.473       .  S
C581        H583   1.081       .  S
Cu584       N587   2.073       .  S
Cu585       N595   2.091       .  S
Cu586       N588   2.070       .  S
Cu586       N594   2.071       .  S
N587        N588   1.322       .  A
N587        C591   1.345       .  A
N588        C589   1.345       .  A
C589        C590   1.381       .  A
C589        H592   1.081       .  S
C590        C591   1.382       .  A
C590        C700   1.466       .  S
C591        H593   1.082       .  S
N594        N595   1.323       .  A
N594        C598   1.346       .  A
N595        C596   1.348       .  A
C596        C597   1.383       .  A
C596        H599   1.081       .  S
C597        C598   1.379       .  A
C597       C1652   1.442       .  S
C598        H600   1.082       .  S
N601        N602   1.323       .  A
N601        C605   1.347       .  A
N601       Cu609   2.076       .  S
N602        C603   1.344       .  A
N602       Cu608   2.073       .  S
C603        C604   1.381       .  A
C603        H606   1.082       .  S
C604        C605   1.383       .  A
C604        C686   1.468       .  S
C605        H607   1.082       .  S
Cu608       N611   2.073       .  S
Cu609       N619   2.076       .  S
Cu610       N612   2.087       .  S
Cu610       N618   2.087       .  S
N611        N612   1.322       .  A
N611        C615   1.346       .  A
N612        C613   1.348       .  A
C613        C614   1.385       .  A
C613        H616   1.081       .  S
C614        C615   1.382       .  A
C614        C710   1.472       .  S
C615        H617   1.081       .  S
N618        N619   1.324       .  A
N618        C622   1.347       .  A
N619        C620   1.346       .  A
C620        C621   1.380       .  A
C620        H623   1.082       .  S
C621        C622   1.382       .  A
C621       C1638   1.441       .  S
C622        H624   1.082       .  S
N625        N626   1.323       .  A
N625        C629   1.347       .  A
N625       Cu633   2.077       .  S
N626        C627   1.343       .  A
N626       Cu632   2.071       .  S
C627        C628   1.380       .  A
C627        H630   1.082       .  S
C628        C629   1.383       .  A
C628        C676   1.468       .  S
C629        H631   1.082       .  S
Cu632       N635   2.072       .  S
Cu633       N643   2.078       .  S
Cu634       N636   2.081       .  S
Cu634       N642   2.081       .  S
N635        N636   1.322       .  A
N635        C639   1.346       .  A
N636        C637   1.347       .  A
C637        C638   1.384       .  A
C637        H640   1.081       .  S
C638        C639   1.383       .  A
C638        C662   1.472       .  S
C639        H641   1.082       .  S
N642        N643   1.323       .  A
N642        C646   1.347       .  A
N643        C644   1.346       .  A
C644        C645   1.380       .  A
C644        H647   1.082       .  S
C645        C646   1.381       .  A
C645       C1622   1.441       .  S
C646        H648   1.081       .  S
N649        N650   1.323       .  A
N649        C653   1.345       .  A
N649       Cu657   2.079       .  S
N650        C651   1.349       .  A
N650       Cu656   2.086       .  S
C651        C652   1.385       .  A
C651        H654   1.082       .  S
C652        C653   1.382       .  A
C653        H655   1.082       .  S
Cu656       N659   2.087       .  S
Cu657       N667   2.079       .  S
Cu658       N660   2.081       .  S
Cu658       N666   2.081       .  S
N659        N660   1.324       .  A
N659        C663   1.347       .  A
N660        C661   1.346       .  A
C661        C662   1.382       .  A
C661        H664   1.081       .  S
C662        C663   1.384       .  A
C663        H665   1.081       .  S
N666        N667   1.322       .  A
N666        C670   1.348       .  A
N667        C668   1.347       .  A
C668        C669   1.382       .  A
C668        H671   1.082       .  S
C669        C670   1.383       .  A
C669       C1610   1.444       .  S
C670        H672   1.082       .  S
N673        N674   1.323       .  A
N673        C677   1.343       .  A
N673       Cu681   2.070       .  S
N674        C675   1.347       .  A
N674       Cu680   2.080       .  S
C675        C676   1.384       .  A
C675        H678   1.081       .  S
C676        C677   1.380       .  A
C677        H679   1.081       .  S
Cu680       N683   2.080       .  S
Cu681       N691   2.070       .  S
Cu682       N684   2.074       .  S
Cu682       N690   2.074       .  S
N683        N684   1.323       .  A
N683        C687   1.346       .  A
N684        C685   1.345       .  A
C685        C686   1.381       .  A
C685        H688   1.082       .  S
C686        C687   1.383       .  A
C687        H689   1.082       .  S
N690        N691   1.322       .  A
N690        C694   1.346       .  A
N691        C692   1.345       .  A
C692        C693   1.380       .  A
C692        H695   1.081       .  S
C693        C694   1.380       .  A
C693       C1594   1.438       .  S
C694        H696   1.081       .  S
N697        N698   1.323       .  A
N697        C701   1.344       .  A
N697       Cu705   2.069       .  S
N698        C699   1.347       .  A
N698       Cu704   2.082       .  S
C699        C700   1.383       .  A
C699        H702   1.082       .  S
C700        C701   1.379       .  A
C701        H703   1.082       .  S
Cu704       N707   2.082       .  S
Cu705       N715   2.071       .  S
Cu706       N708   2.088       .  S
Cu706       N714   2.088       .  S
N707        N708   1.324       .  A
N707        C711   1.346       .  A
N708        C709   1.348       .  A
C709        C710   1.384       .  A
C709        H712   1.081       .  S
C710        C711   1.382       .  A
C711        H713   1.082       .  S
N714        N715   1.323       .  A
N714        C718   1.348       .  A
N715        C716   1.346       .  A
C716        C717   1.380       .  A
C716        H719   1.082       .  S
C717        C718   1.383       .  A
C717       C1580   1.442       .  S
C718        H720   1.081       .  S
N721        N722   1.322       .  A
N721        C725   1.348       .  A
N721       Cu729   2.079       .  S
N722        C723   1.344       .  A
N722       Cu728   2.072       .  S
C723        C724   1.381       .  A
C723        H726   1.082       .  S
C724        C725   1.384       .  A
C724        C844   1.470       .  S
C725        H727   1.082       .  S
Cu728       N731   2.071       .  S
Cu729       N739   2.080       .  S
Cu730       N732   2.084       .  S
Cu730       N738   2.085       .  S
N731        N732   1.323       .  A
N731        C735   1.345       .  A
N732        C733   1.347       .  A
C733        C734   1.385       .  A
C733        H736   1.081       .  S
C734        C735   1.381       .  A
C734        C806   1.470       .  S
C735        H737   1.082       .  S
N738        N739   1.324       .  A
N738        C742   1.347       .  A
N739        C740   1.347       .  A
C740        C741   1.380       .  A
C740        H743   1.082       .  S
C741        C742   1.382       .  A
C741       C1566   1.442       .  S
C742        H744   1.081       .  S
N745        N746   1.323       .  A
N745        C749   1.347       .  A
N745       Cu753   2.079       .  S
N746        C747   1.346       .  A
N746       Cu752   2.078       .  S
C747        C748   1.383       .  A
C747        H750   1.082       .  S
C748        C749   1.383       .  A
C748        C854   1.471       .  S
C749        H751   1.082       .  S
Cu752       N755   2.079       .  S
Cu753       N763   2.079       .  S
Cu754       N756   2.088       .  S
Cu754       N762   2.088       .  S
N755        N756   1.323       .  A
N755        C759   1.346       .  A
N756        C757   1.348       .  A
C757        C758   1.385       .  A
C757        H760   1.081       .  S
C758        C759   1.382       .  A
C758        C830   1.474       .  S
C759        H761   1.081       .  S
N762        N763   1.324       .  A
N762        C766   1.348       .  A
N763        C764   1.347       .  A
C764        C765   1.380       .  A
C764        H767   1.082       .  S
C765        C766   1.382       .  A
C765       C1552   1.443       .  S
C766        H768   1.081       .  S
N769        N770   1.322       .  A
N769        C773   1.346       .  A
N769       Cu777   2.078       .  S
N770        C771   1.345       .  A
N770       Cu776   2.071       .  S
C771        C772   1.381       .  A
C771        H774   1.082       .  S
C772        C773   1.383       .  A
C772        C796   1.467       .  S
C773        H775   1.082       .  S
Cu776       N779   2.071       .  S
Cu777       N787   2.079       .  S
Cu778       N780   2.082       .  S
Cu778       N786   2.082       .  S
N779        N780   1.322       .  A
N779        C783   1.344       .  A
N780        C781   1.348       .  A
C781        C782   1.384       .  A
C781        H784   1.081       .  S
C782        C783   1.381       .  A
C782        C820   1.469       .  S
C783        H785   1.082       .  S
N786        N787   1.324       .  A
N786        C790   1.347       .  A
N787        C788   1.347       .  A
C788        C789   1.381       .  A
C788        H791   1.081       .  S
C789        C790   1.381       .  A
C789       C1540   1.441       .  S
C790        H792   1.081       .  S
N793        N794   1.323       .  A
N793        C797   1.346       .  A
N793       Cu801   2.075       .  S
N794        C795   1.345       .  A
N794       Cu800   2.075       .  S
C795        C796   1.381       .  A
C795        H798   1.082       .  S
C796        C797   1.382       .  A
C797        H799   1.082       .  S
Cu800       N803   2.075       .  S
Cu801       N811   2.074       .  S
Cu802       N804   2.076       .  S
Cu802       N810   2.076       .  S
N803        N804   1.322       .  A
N803        C807   1.346       .  A
N804        C805   1.346       .  A
C805        C806   1.383       .  A
C805        H808   1.081       .  S
C806        C807   1.382       .  A
C807        H809   1.081       .  S
N810        N811   1.323       .  A
N810        C814   1.346       .  A
N811        C812   1.346       .  A
C812        C813   1.380       .  A
C812        H815   1.082       .  S
C813        C814   1.379       .  A
C813       C1524   1.438       .  S
C814        H816   1.082       .  S
N817        N818   1.322       .  A
N817        C821   1.345       .  A
N817       Cu825   2.076       .  S
N818        C819   1.346       .  A
N818       Cu824   2.075       .  S
C819        C820   1.382       .  A
C819        H822   1.082       .  S
C820        C821   1.383       .  A
C821        H823   1.082       .  S
Cu824       N827   2.076       .  S
Cu825       N835   2.076       .  S
Cu826       N828   2.092       .  S
Cu826       N834   2.091       .  S
N827        N828   1.323       .  A
N827        C831   1.346       .  A
N828        C829   1.348       .  A
C829        C830   1.386       .  A
C829        H832   1.081       .  S
C830        C831   1.382       .  A
C831        H833   1.081       .  S
N834        N835   1.324       .  A
N834        C838   1.349       .  A
N835        C836   1.346       .  A
C836        C837   1.380       .  A
C836        H839   1.082       .  S
C837        C838   1.384       .  A
C837       C1510   1.444       .  S
C838        H840   1.081       .  S
N841        N842   1.323       .  A
N841        C845   1.343       .  A
N841       Cu849   2.069       .  S
N842        C843   1.349       .  A
N842       Cu848   2.089       .  S
C843        C844   1.385       .  A
C843        H846   1.082       .  S
C844        C845   1.379       .  A
C845        H847   1.082       .  S
Cu848       N851   2.089       .  S
Cu849       N859   2.069       .  S
Cu850       N852   2.077       .  S
Cu850       N858   2.076       .  S
N851        N852   1.324       .  A
N851        C855   1.347       .  A
N852        C853   1.346       .  A
C853        C854   1.382       .  A
C853        H856   1.082       .  S
C854        C855   1.384       .  A
C855        H857   1.082       .  S
N858        N859   1.322       .  A
N858        C862   1.346       .  A
N859        C860   1.346       .  A
C860        C861   1.380       .  A
C860        H863   1.081       .  S
C861        C862   1.381       .  A
C861       C1496   1.439       .  S
C862        H864   1.081       .  S
N865        N866   1.324       .  A
N865        C869   1.345       .  A
N865       Cu873   2.075       .  S
N866        C867   1.345       .  A
N866       Cu872   2.077       .  S
C867        C868   1.381       .  A
C867        H870   1.082       .  S
C868        C869   1.382       .  A
C868        C950   1.469       .  S
C869        H871   1.082       .  S
Cu872       N875   2.077       .  S
Cu873       N883   2.075       .  S
Cu874       N876   2.073       .  S
Cu874       N882   2.073       .  S
N875        N876   1.322       .  A
N875        C879   1.348       .  A
N876        C877   1.344       .  A
C877        C878   1.382       .  A
C877        H880   1.081       .  S
C878        C879   1.384       .  A
C878        C998   1.471       .  S
C879        H881   1.082       .  S
N882        N883   1.322       .  A
N882        C886   1.346       .  A
N883        C884   1.346       .  A
C884        C885   1.381       .  A
C884        H887   1.081       .  S
C885        C886   1.380       .  A
C885       C1482   1.439       .  S
C886        H888   1.081       .  S
N889        N890   1.323       .  A
N889        C893   1.346       .  A
N889       Cu897   2.075       .  S
N890        C891   1.346       .  A
N890       Cu896   2.080       .  S
C891        C892   1.383       .  A
C891        H894   1.081       .  S
C892        C893   1.382       .  A
C892        C988   1.469       .  S
C893        H895   1.081       .  S
Cu896       N899   2.080       .  S
Cu897       N907   2.075       .  S
Cu898       N900   2.070       .  S
Cu898       N906   2.070       .  S
N899        N900   1.323       .  A
N899        C903   1.347       .  A
N900        C901   1.344       .  A
C901        C902   1.381       .  A
C901        H904   1.082       .  S
C902        C903   1.384       .  A
C902        C974   1.469       .  S
C903        H905   1.082       .  S
N906        N907   1.323       .  A
N906        C910   1.345       .  A
N907        C908   1.346       .  A
C908        C909   1.380       .  A
C908        H911   1.082       .  S
C909        C910   1.379       .  A
C909       C1470   1.437       .  S
C910        H912   1.082       .  S
N913        N914   1.323       .  A
N913        C917   1.346       .  A
N913       Cu921   2.074       .  S
N914        C915   1.346       .  A
N914       Cu920   2.080       .  S
C915        C916   1.383       .  A
C915        H918   1.081       .  S
C916        C917   1.382       .  A
C916        C940   1.469       .  S
C917        H919   1.081       .  S
Cu920       N923   2.080       .  S
Cu921       N931   2.074       .  S
Cu922       N924   2.074       .  S
Cu922       N930   2.074       .  S
N923        N924   1.323       .  A
N923        C927   1.346       .  A
N924        C925   1.345       .  A
C925        C926   1.382       .  A
C925        H928   1.082       .  S
C926        C927   1.383       .  A
C926        C964   1.470       .  S
C927        H929   1.082       .  S
N930        N931   1.323       .  A
N930        C934   1.346       .  A
N931        C932   1.346       .  A
C932        C933   1.380       .  A
C932        H935   1.082       .  S
C933        C934   1.380       .  A
C933       C1456   1.438       .  S
C934        H936   1.082       .  S
N937        N938   1.323       .  A
N937        C941   1.346       .  A
N937       Cu945   2.079       .  S
N938        C939   1.345       .  A
N938       Cu944   2.073       .  S
C939        C940   1.382       .  A
C939        H942   1.081       .  S
C940        C941   1.383       .  A
C941        H943   1.081       .  S
Cu944       N947   2.073       .  S
Cu945       N955   2.080       .  S
Cu946       N948   2.076       .  S
Cu946       N954   2.077       .  S
N947        N948   1.323       .  A
N947        C951   1.345       .  A
N948        C949   1.346       .  A
C949        C950   1.383       .  A
C949        H952   1.082       .  S
C950        C951   1.382       .  A
C951        H953   1.082       .  S
N954        N955   1.323       .  A
N954        C958   1.346       .  A
N955        C956   1.347       .  A
C956        C957   1.381       .  A
C956        H959   1.082       .  S
C957        C958   1.381       .  A
C957       C1440   1.441       .  S
C958        H960   1.082       .  S
N961        N962   1.322       .  A
N961        C965   1.346       .  A
N961       Cu969   2.075       .  S
N962        C963   1.345       .  A
N962       Cu968   2.074       .  S
C963        C964   1.382       .  A
C963        H966   1.082       .  S
C964        C965   1.383       .  A
C965        H967   1.081       .  S
Cu968       N971   2.074       .  S
Cu969       N979   2.076       .  S
Cu970       N972   2.078       .  S
Cu970       N978   2.079       .  S
N971        N972   1.323       .  A
N971        C975   1.345       .  A
N972        C973   1.347       .  A
C973        C974   1.383       .  A
C973        H976   1.081       .  S
C974        C975   1.381       .  A
C975        H977   1.082       .  S
N978        N979   1.323       .  A
N978        C982   1.347       .  A
N979        C980   1.346       .  A
C980        C981   1.380       .  A
C980        H983   1.081       .  S
C981        C982   1.381       .  A
C981       C1426   1.440       .  S
C982        H984   1.081       .  S
N985        N986   1.322       .  A
N985        C989   1.346       .  A
N985       Cu993   2.072       .  S
N986        C987   1.346       .  A
N986       Cu992   2.078       .  S
C987        C988   1.383       .  A
C987        H990   1.081       .  S
C988        C989   1.382       .  A
C989        H991   1.081       .  S
Cu992       N995   2.078       .  S
Cu993      N1003   2.072       .  S
Cu994       N996   2.080       .  S
Cu994      N1002   2.081       .  S
N995        N996   1.323       .  A
N995        C999   1.345       .  A
N996        C997   1.348       .  A
C997        C998   1.384       .  A
C997       H1000   1.082       .  S
C998        C999   1.382       .  A
C999       H1001   1.082       .  S
N1002      N1003   1.324       .  A
N1002      C1006   1.347       .  A
N1003      C1004   1.345       .  A
C1004      C1005   1.379       .  A
C1004      H1007   1.082       .  S
C1005      C1006   1.381       .  A
C1005      C1414   1.438       .  S
C1006      H1008   1.082       .  S
N1009      N1010   1.323       .  A
N1009      C1013   1.345       .  A
N1009     Cu1017   2.076       .  S
N1010      C1011   1.346       .  A
N1010     Cu1016   2.075       .  S
C1011      C1012   1.383       .  A
C1011      H1014   1.081       .  S
C1012      C1013   1.383       .  A
C1012      C1118   1.470       .  S
C1013      H1015   1.081       .  S
Cu1016     N1019   2.074       .  S
Cu1017     N1027   2.076       .  S
Cu1018     N1020   2.070       .  S
Cu1018     N1026   2.070       .  S
N1019      N1020   1.323       .  A
N1019      C1023   1.344       .  A
N1020      C1021   1.345       .  A
C1021      C1022   1.382       .  A
C1021      H1024   1.082       .  S
C1022      C1023   1.382       .  A
C1022      C1142   1.467       .  S
C1023      H1025   1.082       .  S
N1026      N1027   1.323       .  A
N1026      C1030   1.345       .  A
N1027      C1028   1.346       .  A
C1028      C1029   1.380       .  A
C1028      H1031   1.081       .  S
C1029      C1030   1.379       .  A
C1029      C1398   1.437       .  S
C1030      H1032   1.082       .  S
N1033      N1034   1.323       .  A
N1033      C1037   1.347       .  A
N1033     Cu1041   2.078       .  S
N1034      C1035   1.345       .  A
N1034     Cu1040   2.077       .  S
C1035      C1036   1.382       .  A
C1035      H1038   1.081       .  S
C1036      C1037   1.382       .  A
C1036      C1132   1.469       .  S
C1037      H1039   1.081       .  S
Cu1040     N1043   2.077       .  S
Cu1041     N1051   2.078       .  S
Cu1042     N1044   2.072       .  S
Cu1042     N1050   2.072       .  S
N1043      N1044   1.323       .  A
N1043      C1047   1.346       .  A
N1044      C1045   1.344       .  A
C1045      C1046   1.382       .  A
C1045      H1048   1.082       .  S
C1046      C1047   1.383       .  A
C1046      C1094   1.470       .  S
C1047      H1049   1.082       .  S
N1050      N1051   1.323       .  A
N1050      C1054   1.346       .  A
N1051      C1052   1.346       .  A
C1052      C1053   1.381       .  A
C1052      H1055   1.082       .  S
C1053      C1054   1.380       .  A
C1053      C1386   1.439       .  S
C1054      H1056   1.082       .  S
N1057      N1058   1.323       .  A
N1057      C1061   1.346       .  A
N1057     Cu1065   2.076       .  S
N1058      C1059   1.345       .  A
N1058     Cu1064   2.076       .  S
C1059      C1060   1.382       .  A
C1059      H1062   1.081       .  S
C1060      C1061   1.383       .  A
C1060      C1108   1.469       .  S
C1061      H1063   1.081       .  S
Cu1064     N1067   2.076       .  S
Cu1065     N1075   2.076       .  S
Cu1066     N1068   2.067       .  S
Cu1066     N1074   2.067       .  S
N1067      N1068   1.322       .  A
N1067      C1071   1.346       .  A
N1068      C1069   1.344       .  A
C1069      C1070   1.380       .  A
C1069      H1072   1.082       .  S
C1070      C1071   1.383       .  A
C1070      C1084   1.467       .  S
C1071      H1073   1.082       .  S
N1074      N1075   1.322       .  A
N1074      C1078   1.345       .  A
N1075      C1076   1.346       .  A
C1076      C1077   1.380       .  A
C1076      H1079   1.081       .  S
C1077      C1078   1.379       .  A
C1077      C1372   1.437       .  S
C1078      H1080   1.082       .  S
N1081      N1082   1.322       .  A
N1081      C1085   1.345       .  A
N1081     Cu1089   2.068       .  S
N1082      C1083   1.344       .  A
N1082     Cu1088   2.071       .  S
C1083      C1084   1.382       .  A
C1083      H1086   1.082       .  S
C1084      C1085   1.381       .  A
C1085      H1087   1.081       .  S
Cu1088     N1091   2.071       .  S
Cu1089     N1099   2.068       .  S
Cu1090     N1092   2.077       .  S
Cu1090     N1098   2.077       .  S
N1091      N1092   1.323       .  A
N1091      C1095   1.344       .  A
N1092      C1093   1.346       .  A
C1093      C1094   1.383       .  A
C1093      H1096   1.081       .  S
C1094      C1095   1.382       .  A
C1095      H1097   1.082       .  S
N1098      N1099   1.322       .  A
N1098      C1102   1.347       .  A
N1099      C1100   1.344       .  A
C1100      C1101   1.378       .  A
C1100      H1103   1.082       .  S
C1101      C1102   1.381       .  A
C1101      C1356   1.437       .  S
C1102      H1104   1.082       .  S
N1105      N1106   1.323       .  A
N1105      C1109   1.346       .  A
N1105     Cu1113   2.080       .  S
N1106      C1107   1.345       .  A
N1106     Cu1112   2.071       .  S
C1107      C1108   1.381       .  A
C1107      H1110   1.081       .  S
C1108      C1109   1.383       .  A
C1109      H1111   1.081       .  S
Cu1112     N1115   2.072       .  S
Cu1113     N1123   2.081       .  S
Cu1114     N1116   2.078       .  S
Cu1114     N1122   2.079       .  S
N1115      N1116   1.322       .  A
N1115      C1119   1.344       .  A
N1116      C1117   1.347       .  A
C1117      C1118   1.384       .  A
C1117      H1120   1.082       .  S
C1118      C1119   1.382       .  A
C1119      H1121   1.082       .  S
N1122      N1123   1.323       .  A
N1122      C1126   1.346       .  A
N1123      C1124   1.348       .  A
C1124      C1125   1.382       .  A
C1124      H1127   1.082       .  S
C1125      C1126   1.380       .  A
C1125      C1342   1.442       .  S
C1126      H1128   1.082       .  S
N1129      N1130   1.323       .  A
N1129      C1133   1.344       .  A
N1129     Cu1137   2.072       .  S
N1130      C1131   1.347       .  A
N1130     Cu1136   2.082       .  S
C1131      C1132   1.384       .  A
C1131      H1134   1.081       .  S
C1132      C1133   1.381       .  A
C1133      H1135   1.081       .  S
Cu1136     N1139   2.082       .  S
Cu1137     N1147   2.072       .  S
Cu1138     N1140   2.068       .  S
Cu1138     N1146   2.068       .  S
N1139      N1140   1.323       .  A
N1139      C1143   1.346       .  A
N1140      C1141   1.344       .  A
C1141      C1142   1.380       .  A
C1141      H1144   1.082       .  S
C1142      C1143   1.383       .  A
C1143      H1145   1.082       .  S
N1146      N1147   1.322       .  A
N1146      C1150   1.345       .  A
N1147      C1148   1.346       .  A
C1148      C1149   1.380       .  A
C1148      H1151   1.082       .  S
C1149      C1150   1.379       .  A
C1149      C1330   1.436       .  S
C1150      H1152   1.082       .  S
O1153     Cu1161   2.022       .  S
O1153      C1163   1.278       .  A
O1154     Cu1161   2.022       .  S
O1154      C1164   1.278       .  A
O1155     Cu1161   2.008       .  S
O1155      C1165   1.276       .  A
O1156     Cu1161   2.008       .  S
O1156      C1166   1.276       .  A
O1157     Cu1162   2.012       .  S
O1157      C1166   1.277       .  A
O1158     Cu1162   2.013       .  S
O1158      C1165   1.277       .  A
O1159     Cu1162   2.017       .  S
O1159      C1164   1.277       .  A
O1160     Cu1162   2.013       .  S
O1160      C1163   1.277       .  A
Cu1161    Cu1162   2.378       .  S
C1163      C1442   1.441       .  S
C1164      C1608   1.443       .  S
C1165      C1526   1.435       .  S
C1166      C1328   1.435       .  S
O1167     Cu1175   2.018       .  S
O1167      C1177   1.277       .  A
O1168     Cu1175   2.017       .  S
O1168      C1178   1.277       .  A
O1169     Cu1175   2.009       .  S
O1169      C1179   1.276       .  A
O1170     Cu1175   2.006       .  S
O1170      C1180   1.276       .  A
O1171     Cu1176   2.024       .  S
O1171      C1180   1.278       .  A
O1172     Cu1176   2.024       .  S
O1172      C1179   1.279       .  A
O1173     Cu1176   2.021       .  S
O1173      C1178   1.278       .  A
O1174     Cu1176   2.022       .  S
O1174      C1177   1.278       .  A
Cu1175    Cu1176   2.377       .  S
C1177      C1764   1.443       .  S
C1178      C1344   1.442       .  S
C1179      C1582   1.441       .  S
C1180      C1834   1.439       .  S
O1181     Cu1189   2.012       .  S
O1181      C1191   1.277       .  A
O1182     Cu1189   2.013       .  S
O1182      C1192   1.277       .  A
O1183     Cu1189   2.012       .  S
O1183      C1193   1.277       .  A
O1184     Cu1189   2.013       .  S
O1184      C1194   1.277       .  A
O1185     Cu1190   2.018       .  S
O1185      C1194   1.278       .  A
O1186     Cu1190   2.019       .  S
O1186      C1193   1.278       .  A
O1187     Cu1190   2.010       .  S
O1187      C1192   1.276       .  A
O1188     Cu1190   2.013       .  S
O1188      C1191   1.277       .  A
Cu1189    Cu1190   2.379       .  S
C1191      C1916   1.437       .  S
C1192      C1358   1.436       .  S
C1193      C1848   1.440       .  S
C1194      C1428   1.439       .  S
O1195     Cu1203   2.013       .  S
O1195      C1205   1.277       .  A
O1196     Cu1203   2.017       .  S
O1196      C1206   1.277       .  A
O1197     Cu1203   2.011       .  S
O1197      C1207   1.277       .  A
O1198     Cu1203   2.011       .  S
O1198      C1208   1.277       .  A
O1199     Cu1204   2.009       .  S
O1199      C1208   1.276       .  A
O1200     Cu1204   2.011       .  S
O1200      C1207   1.276       .  A
O1201     Cu1204   2.015       .  S
O1201      C1206   1.277       .  A
O1202     Cu1204   2.010       .  S
O1202      C1205   1.276       .  A
Cu1203    Cu1204   2.379       .  S
C1205      C1932   1.436       .  S
C1206      C1512   1.441       .  S
C1207      C1694   1.436       .  S
C1208      C1412   1.435       .  S
O1209     Cu1217   2.009       .  S
O1209      C1219   1.276       .  A
O1210     Cu1217   2.006       .  S
O1210      C1220   1.276       .  A
O1211     Cu1217   2.008       .  S
O1211      C1221   1.276       .  A
O1212     Cu1217   2.008       .  S
O1212      C1222   1.276       .  A
O1213     Cu1218   2.016       .  S
O1213      C1222   1.277       .  A
O1214     Cu1218   2.018       .  S
O1214      C1221   1.278       .  A
O1215     Cu1218   2.014       .  S
O1215      C1220   1.277       .  A
O1216     Cu1218   2.015       .  S
O1216      C1219   1.277       .  A
Cu1217    Cu1218   2.379       .  S
C1219      C1666   1.436       .  S
C1220      C1596   1.435       .  S
C1221      C1498   1.438       .  S
C1222      C1748   1.437       .  S
O1223     Cu1231   2.017       .  S
O1223      C1233   1.277       .  A
O1224     Cu1231   2.015       .  S
O1224      C1234   1.277       .  A
O1225     Cu1231   2.018       .  S
O1225      C1235   1.278       .  A
O1226     Cu1231   2.015       .  S
O1226      C1236   1.277       .  A
O1227     Cu1232   2.011       .  S
O1227      C1236   1.276       .  A
O1228     Cu1232   2.012       .  S
O1228      C1235   1.277       .  A
O1229     Cu1232   2.013       .  S
O1229      C1234   1.277       .  A
O1230     Cu1232   2.012       .  S
O1230      C1233   1.277       .  A
Cu1231    Cu1232   2.378       .  S
C1233      C1862   1.439       .  S
C1234      C1680   1.438       .  S
C1235      C1778   1.440       .  S
C1236      C1946   1.437       .  S
O1237     Cu1245   2.013   1_455  S
O1237      C1247   1.277       .  A
O1238     Cu1245   2.016       .  S
O1238      C1248   1.277       .  A
O1239     Cu1245   2.013       .  S
O1239      C1249   1.277       .  A
O1240     Cu1245   2.012   1_455  S
O1240      C1250   1.277       .  A
O1241     Cu1246   2.012   1_455  S
O1241      C1250   1.277       .  A
O1242     Cu1246   2.010       .  S
O1242      C1249   1.276       .  A
O1243     Cu1246   2.013       .  S
O1243      C1248   1.277       .  A
O1244     Cu1246   2.012   1_455  S
O1244      C1247   1.277       .  A
Cu1245    Cu1246   2.379       .  S
C1247      C1370   1.437   1_565  S
C1248      C1554   1.440       .  S
C1249      C1468   1.436   1_565  S
C1250      C1636   1.437       .  S
O1251     Cu1259   2.014   1_455  S
O1251      C1261   1.277       .  A
O1252     Cu1259   2.011       .  S
O1252      C1262   1.277       .  A
O1253     Cu1259   2.018       .  S
O1253      C1263   1.277       .  A
O1254     Cu1259   2.016   1_455  S
O1254      C1264   1.277       .  A
O1255     Cu1260   2.018   1_455  S
O1255      C1264   1.277       .  A
O1256     Cu1260   2.020       .  S
O1256      C1263   1.278       .  A
O1257     Cu1260   2.013       .  S
O1257      C1262   1.277       .  A
O1258     Cu1260   2.015   1_455  S
O1258      C1261   1.277       .  A
Cu1259    Cu1260   2.378       .  S
C1261      C1890   1.439   1_565  S
C1262      C1736   1.437       .  S
C1263      C1972   1.442   1_565  S
C1264      C1804   1.440       .  S
O1265     Cu1273   2.012       .  S
O1265      C1275   1.276       .  A
O1266     Cu1273   2.015       .  S
O1266      C1276   1.277   1_554  A
O1267     Cu1273   2.016       .  S
O1267      C1277   1.277   1_554  A
O1268     Cu1273   2.016       .  S
O1268      C1278   1.277       .  A
O1269     Cu1274   2.013       .  S
O1269      C1278   1.277       .  A
O1270     Cu1274   2.015       .  S
O1270      C1277   1.277   1_554  A
O1271     Cu1274   2.022       .  S
O1271      C1276   1.278   1_554  A
O1272     Cu1274   2.019       .  S
O1272      C1275   1.278       .  A
Cu1273    Cu1274   2.378       .  S
C1275      C1384   1.439   1_565  S
C1276      C1820   1.442       .  S
C1277      C1874   1.439   1_565  S
C1278      C1624   1.439       .  S
O1279     Cu1287   2.012   1_455  S
O1279      C1289   1.277   1_554  A
O1280     Cu1287   2.011       .  S
O1280      C1290   1.276       .  A
O1281     Cu1287   2.011   1_455  S
O1281      C1291   1.277       .  A
O1282     Cu1287   2.011       .  S
O1282      C1292   1.277   1_554  A
O1283     Cu1288   2.013       .  S
O1283      C1292   1.277   1_554  A
O1284     Cu1288   2.010   1_455  S
O1284      C1291   1.276       .  A
O1285     Cu1288   2.017       .  S
O1285      C1290   1.278       .  A
O1286     Cu1288   2.016   1_455  S
O1286      C1289   1.277   1_554  A
Cu1287    Cu1288   2.379       .  S
C1289      C1902   1.439       .  S
C1290      C1484   1.438       .  S
C1291      C1400   1.435       .  S
C1292      C1960   1.437       .  S
O1293     Cu1301   2.011       .  S
O1293      C1303   1.277       .  A
O1294     Cu1301   2.014       .  S
O1294      C1304   1.277   1_554  A
O1295     Cu1301   2.011       .  S
O1295      C1305   1.276   1_554  A
O1296     Cu1301   2.013       .  S
O1296      C1306   1.277       .  A
O1297     Cu1302   2.018       .  S
O1297      C1306   1.277       .  A
O1298     Cu1302   2.014       .  S
O1298      C1305   1.277   1_554  A
O1299     Cu1302   2.011       .  S
O1299      C1304   1.277   1_554  A
O1300     Cu1302   2.011       .  S
O1300      C1303   1.276       .  A
Cu1301    Cu1302   2.379       .  S
C1303      C1454   1.436   1_565  S
C1304      C1722   1.437       .  S
C1305      C1988   1.437   1_565  S
C1306      C1568   1.440       .  S
O1307     Cu1315   2.013       .  S
O1307      C1317   1.277       .  A
O1308     Cu1315   2.015   1_455  S
O1308      C1318   1.277   1_554  A
O1309     Cu1315   2.018       .  S
O1309      C1319   1.277   1_554  A
O1310     Cu1315   2.016   1_455  S
O1310      C1320   1.277       .  A
O1311     Cu1316   2.020   1_455  S
O1311      C1320   1.278       .  A
O1312     Cu1316   2.022       .  S
O1312      C1319   1.278   1_554  A
O1313     Cu1316   2.022   1_455  S
O1313      C1318   1.278   1_554  A
O1314     Cu1316   2.018       .  S
O1314      C1317   1.277       .  A
Cu1315    Cu1316   2.377       .  S
C1317      C1538   1.439       .  S
C1318      C1792   1.442       .  S
C1319      C1708   1.443       .  S
C1320      C1650   1.441       .  S
C1321      C1322   1.401       .  A
C1321      C1326   1.401       .  A
C1321      C1329   1.439       .  S
C1322      C1323   1.399       .  A
C1322      H1331   1.083       .  S
C1323      C1324   1.402       .  A
C1323      H1332   1.083       .  S
C1324      C1325   1.401       .  A
C1324      C1327   1.440       .  S
C1325      C1326   1.399       .  A
C1325      H1333   1.083       .  S
C1326      H1334   1.084       .  S
C1327      C1328   1.206       .  T
C1329      C1330   1.206       .  T
C1335      C1336   1.402       .  A
C1335      C1340   1.403       .  A
C1335      C1343   1.446       .  S
C1336      C1337   1.401       .  A
C1336      H1345   1.083       .  S
C1337      C1338   1.402       .  A
C1337      H1346   1.083       .  S
C1338      C1339   1.403       .  A
C1338      C1341   1.445       .  S
C1339      C1340   1.402       .  A
C1339      H1347   1.083       .  S
C1340      H1348   1.083       .  S
C1341      C1342   1.209       .  T
C1343      C1344   1.210       .  T
C1349      C1350   1.401       .  A
C1349      C1354   1.402       .  A
C1349      C1357   1.441       .  S
C1350      C1351   1.399       .  A
C1350      H1359   1.083       .  S
C1351      C1352   1.401       .  A
C1351      H1360   1.083       .  S
C1352      C1353   1.402       .  A
C1352      C1355   1.440       .  S
C1353      C1354   1.400       .  A
C1353      H1361   1.083       .  S
C1354      H1362   1.083       .  S
C1355      C1356   1.206       .  T
C1357      C1358   1.207       .  T
C1363      C1364   1.401       .  A
C1363      C1368   1.402       .  A
C1363      C1371   1.440       .  S
C1364      C1365   1.399       .  A
C1364      H1373   1.083       .  S
C1365      C1366   1.402       .  A
C1365      H1374   1.083       .  S
C1366      C1367   1.401       .  A
C1366      C1369   1.441       .  S
C1367      C1368   1.399       .  A
C1367      H1375   1.083       .  S
C1368      H1376   1.083       .  S
C1369      C1370   1.207       .  T
C1371      C1372   1.206       .  T
C1377      C1378   1.402       .  A
C1377      C1382   1.402       .  A
C1377      C1385   1.442       .  S
C1378      C1379   1.400       .  A
C1378      H1387   1.083       .  S
C1379      C1380   1.402       .  A
C1379      H1388   1.083       .  S
C1380      C1381   1.402       .  A
C1380      C1383   1.443       .  S
C1381      C1382   1.400       .  A
C1381      H1389   1.083       .  S
C1382      H1390   1.083       .  S
C1383      C1384   1.208       .  T
C1385      C1386   1.207       .  T
C1391      C1392   1.401       .  A
C1391      C1396   1.401       .  A
C1391      C1399   1.440       .  S
C1392      C1393   1.399       .  A
C1392      H1401   1.083       .  S
C1393      C1394   1.401       .  A
C1393      H1402   1.083       .  S
C1394      C1395   1.401       .  A
C1394      C1397   1.440       .  S
C1395      C1396   1.399       .  A
C1395      H1403   1.083       .  S
C1396      H1404   1.083       .  S
C1397      C1398   1.206       .  T
C1399      C1400   1.206       .  T
C1405      C1406   1.402       .  A
C1405      C1410   1.401       .  A
C1405      C1413   1.440       .  S
C1406      C1407   1.400       .  A
C1406      H1415   1.083       .  S
C1407      C1408   1.402       .  A
C1407      H1416   1.083       .  S
C1408      C1409   1.401       .  A
C1408      C1411   1.440       .  S
C1409      C1410   1.398       .  A
C1409      H1417   1.083       .  S
C1410      H1418   1.083       .  S
C1411      C1412   1.206       .  T
C1413      C1414   1.206       .  T
C1419      C1420   1.401       .  A
C1419      C1424   1.403       .  A
C1419      C1427   1.444       .  S
C1420      C1421   1.399       .  A
C1420      H1429   1.083       .  S
C1421      C1422   1.401       .  A
C1421      H1430   1.083       .  S
C1422      C1423   1.403       .  A
C1422      C1425   1.443       .  S
C1423      C1424   1.401       .  A
C1423      H1431   1.083       .  S
C1424      H1432   1.083       .  S
C1425      C1426   1.208       .  T
C1427      C1428   1.208       .  T
C1433      C1434   1.403       .  A
C1433      C1438   1.402       .  A
C1433      C1441   1.445       .  S
C1434      C1435   1.401       .  A
C1434      H1443   1.083       .  S
C1435      C1436   1.402       .  A
C1435      H1444   1.083       .  S
C1436      C1437   1.402       .  A
C1436      C1439   1.444       .  S
C1437      C1438   1.401       .  A
C1437      H1445   1.083       .  S
C1438      H1446   1.083       .  S
C1439      C1440   1.209       .  T
C1441      C1442   1.209       .  T
C1447      C1448   1.401       .  A
C1447      C1452   1.401       .  A
C1447      C1455   1.441       .  S
C1448      C1449   1.400       .  A
C1448      H1457   1.083       .  S
C1449      C1450   1.402       .  A
C1449      H1458   1.083       .  S
C1450      C1451   1.401       .  A
C1450      C1453   1.441       .  S
C1451      C1452   1.399       .  A
C1451      H1459   1.083       .  S
C1452      H1460   1.083       .  S
C1453      C1454   1.206       .  T
C1455      C1456   1.206       .  T
C1461      C1462   1.401       .  A
C1461      C1466   1.401       .  A
C1461      C1469   1.440       .  S
C1462      C1463   1.400       .  A
C1462      H1471   1.083       .  S
C1463      C1464   1.401       .  A
C1463      H1472   1.083       .  S
C1464      C1465   1.401       .  A
C1464      C1467   1.440       .  S
C1465      C1466   1.399       .  A
C1465      H1473   1.084       .  S
C1466      H1474   1.083       .  S
C1467      C1468   1.206       .  T
C1469      C1470   1.206       .  T
C1475      C1476   1.401       .  A
C1475      C1480   1.403       .  A
C1475      C1483   1.443       .  S
C1476      C1477   1.399       .  A
C1476      H1485   1.083       .  S
C1477      C1478   1.401       .  A
C1477      H1486   1.083       .  S
C1478      C1479   1.402       .  A
C1478      C1481   1.442       .  S
C1479      C1480   1.401       .  A
C1479      H1487   1.083       .  S
C1480      H1488   1.083       .  S
C1481      C1482   1.207       .  T
C1483      C1484   1.208       .  T
C1489      C1490   1.403       .  A
C1489      C1494   1.401       .  A
C1489      C1497   1.442       .  S
C1490      C1491   1.401       .  A
C1490      H1499   1.083       .  S
C1491      C1492   1.402       .  A
C1491      H1500   1.083       .  S
C1492      C1493   1.402       .  A
C1492      C1495   1.442       .  S
C1493      C1494   1.399       .  A
C1493      H1501   1.083       .  S
C1494      H1502   1.083       .  S
C1495      C1496   1.207       .  T
C1497      C1498   1.207       .  T
C1503      C1504   1.403       .  A
C1503      C1508   1.402       .  A
C1503      C1511   1.446       .  S
C1504      C1505   1.402       .  A
C1504      H1513   1.083       .  S
C1505      C1506   1.403       .  A
C1505      H1514   1.083       .  S
C1506      C1507   1.402       .  A
C1506      C1509   1.446       .  S
C1507      C1508   1.401       .  A
C1507      H1515   1.083       .  S
C1508      H1516   1.083       .  S
C1509      C1510   1.210       .  T
C1511      C1512   1.209       .  T
C1517      C1518   1.401       .  A
C1517      C1522   1.402       .  A
C1517      C1525   1.440       .  S
C1518      C1519   1.398       .  A
C1518      H1527   1.083       .  S
C1519      C1520   1.401       .  A
C1519      H1528   1.083       .  S
C1520      C1521   1.402       .  A
C1520      C1523   1.440       .  S
C1521      C1522   1.400       .  A
C1521      H1529   1.083       .  S
C1522      H1530   1.083       .  S
C1523      C1524   1.206       .  T
C1525      C1526   1.206       .  T
C1531      C1532   1.402       .  A
C1531      C1536   1.402       .  A
C1531      C1539   1.444       .  S
C1532      C1533   1.401       .  A
C1532      H1541   1.083       .  S
C1533      C1534   1.402       .  A
C1533      H1542   1.083       .  S
C1534      C1535   1.402       .  A
C1534      C1537   1.444       .  S
C1535      C1536   1.401       .  A
C1535      H1543   1.083       .  S
C1536      H1544   1.083       .  S
C1537      C1538   1.209       .  T
C1539      C1540   1.208       .  T
C1545      C1546   1.402       .  A
C1545      C1550   1.402       .  A
C1545      C1553   1.445       .  S
C1546      C1547   1.401       .  A
C1546      H1555   1.083       .  S
C1547      C1548   1.402       .  A
C1547      H1556   1.083       .  S
C1548      C1549   1.402       .  A
C1548      C1551   1.446       .  S
C1549      C1550   1.401       .  A
C1549      H1557   1.083       .  S
C1550      H1558   1.083       .  S
C1551      C1552   1.209       .  T
C1553      C1554   1.209       .  T
C1559      C1560   1.402       .  A
C1559      C1564   1.402       .  A
C1559      C1567   1.445       .  S
C1560      C1561   1.401       .  A
C1560      H1569   1.083       .  S
C1561      C1562   1.402       .  A
C1561      H1570   1.083       .  S
C1562      C1563   1.402       .  A
C1562      C1565   1.445       .  S
C1563      C1564   1.401       .  A
C1563      H1571   1.083       .  S
C1564      H1572   1.083       .  S
C1565      C1566   1.209       .  T
C1567      C1568   1.209       .  T
C1573      C1574   1.402       .  A
C1573      C1578   1.403       .  A
C1573      C1581   1.445       .  S
C1574      C1575   1.401       .  A
C1574      H1583   1.083       .  S
C1575      C1576   1.402       .  A
C1575      H1584   1.083       .  S
C1576      C1577   1.402       .  A
C1576      C1579   1.445       .  S
C1577      C1578   1.401       .  A
C1577      H1585   1.083       .  S
C1578      H1586   1.083       .  S
C1579      C1580   1.209       .  T
C1581      C1582   1.209       .  T
C1587      C1588   1.402       .  A
C1587      C1592   1.401       .  A
C1587      C1595   1.440       .  S
C1588      C1589   1.400       .  A
C1588      H1597   1.083       .  S
C1589      C1590   1.402       .  A
C1589      H1598   1.083       .  S
C1590      C1591   1.401       .  A
C1590      C1593   1.441       .  S
C1591      C1592   1.398       .  A
C1591      H1599   1.083       .  S
C1592      H1600   1.084       .  S
C1593      C1594   1.206       .  T
C1595      C1596   1.206       .  T
C1601      C1602   1.403       .  A
C1601      C1606   1.402       .  A
C1601      C1609   1.447       .  S
C1602      C1603   1.403       .  A
C1602      H1611   1.083       .  S
C1603      C1604   1.403       .  A
C1603      H1612   1.083       .  S
C1604      C1605   1.402       .  A
C1604      C1607   1.448       .  S
C1605      C1606   1.401       .  A
C1605      H1613   1.083       .  S
C1606      H1614   1.083       .  S
C1607      C1608   1.211       .  T
C1609      C1610   1.210       .  T
C1615      C1616   1.402       .  A
C1615      C1620   1.402       .  A
C1615      C1623   1.443       .  S
C1616      C1617   1.400       .  A
C1616      H1625   1.083       .  S
C1617      C1618   1.402       .  A
C1617      H1626   1.083       .  S
C1618      C1619   1.402       .  A
C1618      C1621   1.444       .  S
C1619      C1620   1.400       .  A
C1619      H1627   1.083       .  S
C1620      H1628   1.083       .  S
C1621      C1622   1.208       .  T
C1623      C1624   1.208       .  T
C1629      C1630   1.402       .  A
C1629      C1634   1.402       .  A
C1629      C1637   1.443       .  S
C1630      C1631   1.400       .  A
C1630      H1639   1.083       .  S
C1631      C1632   1.402       .  A
C1631      H1640   1.083       .  S
C1632      C1633   1.402       .  A
C1632      C1635   1.442       .  S
C1633      C1634   1.400       .  A
C1633      H1641   1.083       .  S
C1634      H1642   1.083       .  S
C1635      C1636   1.207       .  T
C1637      C1638   1.208       .  T
C1643      C1644   1.403       .  A
C1643      C1648   1.401       .  A
C1643      C1651   1.445       .  S
C1644      C1645   1.403       .  A
C1644      H1653   1.083       .  S
C1645      C1646   1.403       .  A
C1645      H1654   1.083       .  S
C1646      C1647   1.401       .  A
C1646      C1649   1.446       .  S
C1647      C1648   1.400       .  A
C1647      H1655   1.083       .  S
C1648      H1656   1.083       .  S
C1649      C1650   1.210       .  T
C1651      C1652   1.209       .  T
C1657      C1658   1.401       .  A
C1657      C1662   1.402       .  A
C1657      C1665   1.441       .  S
C1658      C1659   1.399       .  A
C1658      H1667   1.083       .  S
C1659      C1660   1.401       .  A
C1659      H1668   1.083       .  S
C1660      C1661   1.402       .  A
C1660      C1663   1.441       .  S
C1661      C1662   1.400       .  A
C1661      H1669   1.083       .  S
C1662      H1670   1.083       .  S
C1663      C1664   1.206       .  T
C1665      C1666   1.207       .  T
C1671      C1672   1.402       .  A
C1671      C1676   1.402       .  A
C1671      C1679   1.443       .  S
C1672      C1673   1.401       .  A
C1672      H1681   1.083       .  S
C1673      C1674   1.402       .  A
C1673      H1682   1.083       .  S
C1674      C1675   1.401       .  A
C1674      C1677   1.442       .  S
C1675      C1676   1.399       .  A
C1675      H1683   1.083       .  S
C1676      H1684   1.083       .  S
C1677      C1678   1.207       .  T
C1679      C1680   1.208       .  T
C1685      C1686   1.402       .  A
C1685      C1690   1.401       .  A
C1685      C1693   1.441       .  S
C1686      C1687   1.400       .  A
C1686      H1695   1.083       .  S
C1687      C1688   1.402       .  A
C1687      H1696   1.083       .  S
C1688      C1689   1.401       .  A
C1688      C1691   1.441       .  S
C1689      C1690   1.399       .  A
C1689      H1697   1.083       .  S
C1690      H1698   1.083       .  S
C1691      C1692   1.207       .  T
C1693      C1694   1.206       .  T
C1699      C1700   1.403       .  A
C1699      C1704   1.402       .  A
C1699      C1707   1.448       .  S
C1700      C1701   1.403       .  A
C1700      H1709   1.083       .  S
C1701      C1702   1.403       .  A
C1701      H1710   1.083       .  S
C1702      C1703   1.402       .  A
C1702      C1705   1.448       .  S
C1703      C1704   1.401       .  A
C1703      H1711   1.083       .  S
C1704      H1712   1.083       .  S
C1705      C1706   1.211       .  T
C1707      C1708   1.211       .  T
C1713      C1714   1.402       .  A
C1713      C1718   1.402       .  A
C1713      C1721   1.442       .  S
C1714      C1715   1.400       .  A
C1714      H1723   1.083       .  S
C1715      C1716   1.402       .  A
C1715      H1724   1.083       .  S
C1716      C1717   1.402       .  A
C1716      C1719   1.442       .  S
C1717      C1718   1.400       .  A
C1717      H1725   1.083       .  S
C1718      H1726   1.083       .  S
C1719      C1720   1.207       .  T
C1721      C1722   1.207       .  T
C1727      C1728   1.402       .  A
C1727      C1732   1.402       .  A
C1727      C1735   1.442       .  S
C1728      C1729   1.400       .  A
C1728      H1737   1.083       .  S
C1729      C1730   1.401       .  A
C1729      H1738   1.083       .  S
C1730      C1731   1.402       .  A
C1730      C1733   1.441       .  S
C1731      C1732   1.400       .  A
C1731      H1739   1.083       .  S
C1732      H1740   1.083       .  S
C1733      C1734   1.207       .  T
C1735      C1736   1.207       .  T
C1741      C1742   1.401       .  A
C1741      C1746   1.402       .  A
C1741      C1749   1.441       .  S
C1742      C1743   1.399       .  A
C1742      H1751   1.083       .  S
C1743      C1744   1.401       .  A
C1743      H1752   1.083       .  S
C1744      C1745   1.402       .  A
C1744      C1747   1.442       .  S
C1745      C1746   1.400       .  A
C1745      H1753   1.083       .  S
C1746      H1754   1.083       .  S
C1747      C1748   1.207       .  T
C1749      C1750   1.207       .  T
C1755      C1756   1.403       .  A
C1755      C1760   1.402       .  A
C1755      C1763   1.448       .  S
C1756      C1757   1.402       .  A
C1756      H1765   1.083       .  S
C1757      C1758   1.403       .  A
C1757      H1766   1.083       .  S
C1758      C1759   1.403       .  A
C1758      C1761   1.447       .  S
C1759      C1760   1.402       .  A
C1759      H1767   1.083       .  S
C1760      H1768   1.083       .  S
C1761      C1762   1.210       .  T
C1763      C1764   1.211       .  T
C1769      C1770   1.402       .  A
C1769      C1774   1.402       .  A
C1769      C1777   1.445       .  S
C1770      C1771   1.402       .  A
C1770      H1779   1.083       .  S
C1771      C1772   1.403       .  A
C1771      H1780   1.083       .  S
C1772      C1773   1.402       .  A
C1772      C1775   1.446       .  S
C1773      C1774   1.401       .  A
C1773      H1781   1.083       .  S
C1774      H1782   1.083       .  S
C1775      C1776   1.210       .  T
C1777      C1778   1.209       .  T
C1783      C1784   1.403       .  A
C1783      C1788   1.403       .  A
C1783      C1791   1.447       .  S
C1784      C1785   1.402       .  A
C1784      H1793   1.083       .  S
C1785      C1786   1.403       .  A
C1785      H1794   1.083       .  S
C1786      C1787   1.403       .  A
C1786      C1789   1.447       .  S
C1787      C1788   1.402       .  A
C1787      H1795   1.083       .  S
C1788      H1796   1.083       .  S
C1789      C1790   1.210       .  T
C1791      C1792   1.210       .  T
C1797      C1798   1.401       .  A
C1797      C1802   1.402       .  A
C1797      C1805   1.443       .  S
C1798      C1799   1.399       .  A
C1798      H1807   1.083       .  S
C1799      C1800   1.401       .  A
C1799      H1808   1.083       .  S
C1800      C1801   1.403       .  A
C1800      C1803   1.444       .  S
C1801      C1802   1.402       .  A
C1801      H1809   1.083       .  S
C1802      H1810   1.083       .  S
C1803      C1804   1.209       .  T
C1805      C1806   1.208       .  T
C1811      C1812   1.403       .  A
C1811      C1816   1.402       .  A
C1811      C1819   1.447       .  S
C1812      C1813   1.403       .  A
C1812      H1821   1.083       .  S
C1813      C1814   1.403       .  A
C1813      H1822   1.083       .  S
C1814      C1815   1.402       .  A
C1814      C1817   1.447       .  S
C1815      C1816   1.401       .  A
C1815      H1823   1.083       .  S
C1816      H1824   1.083       .  S
C1817      C1818   1.210       .  T
C1819      C1820   1.210       .  T
C1825      C1826   1.401       .  A
C1825      C1830   1.403       .  A
C1825      C1833   1.444       .  S
C1826      C1827   1.400       .  A
C1826      H1835   1.083       .  S
C1827      C1828   1.402       .  A
C1827      H1836   1.083       .  S
C1828      C1829   1.401       .  A
C1828      C1831   1.443       .  S
C1829      C1830   1.400       .  A
C1829      H1837   1.083       .  S
C1830      H1838   1.083       .  S
C1831      C1832   1.208       .  T
C1833      C1834   1.208       .  T
C1839      C1840   1.402       .  A
C1839      C1844   1.402       .  A
C1839      C1847   1.445       .  S
C1840      C1841   1.401       .  A
C1840      H1849   1.083       .  S
C1841      C1842   1.403       .  A
C1841      H1850   1.083       .  S
C1842      C1843   1.402       .  A
C1842      C1845   1.445       .  S
C1843      C1844   1.400       .  A
C1843      H1851   1.083       .  S
C1844      H1852   1.083       .  S
C1845      C1846   1.209       .  T
C1847      C1848   1.209       .  T
C1853      C1854   1.402       .  A
C1853      C1858   1.402       .  A
C1853      C1861   1.444       .  S
C1854      C1855   1.400       .  A
C1854      H1863   1.083       .  S
C1855      C1856   1.402       .  A
C1855      H1864   1.083       .  S
C1856      C1857   1.402       .  A
C1856      C1859   1.444       .  S
C1857      C1858   1.401       .  A
C1857      H1865   1.083       .  S
C1858      H1866   1.083       .  S
C1859      C1860   1.208       .  T
C1861      C1862   1.208       .  T
C1867      C1868   1.403       .  A
C1867      C1872   1.401       .  A
C1867      C1875   1.444       .  S
C1868      C1869   1.402       .  A
C1868      H1877   1.083       .  S
C1869      C1870   1.403       .  A
C1869      H1878   1.083       .  S
C1870      C1871   1.401       .  A
C1870      C1873   1.444       .  S
C1871      C1872   1.399       .  A
C1871      H1879   1.083       .  S
C1872      H1880   1.083       .  S
C1873      C1874   1.208       .  T
C1875      C1876   1.208       .  T
C1881      C1882   1.402       .  A
C1881      C1886   1.402       .  A
C1881      C1889   1.443       .  S
C1882      C1883   1.400       .  A
C1882      H1891   1.083       .  S
C1883      C1884   1.401       .  A
C1883      H1892   1.083       .  S
C1884      C1885   1.402       .  A
C1884      C1887   1.443       .  S
C1885      C1886   1.401       .  A
C1885      H1893   1.083       .  S
C1886      H1894   1.083       .  S
C1887      C1888   1.208       .  T
C1889      C1890   1.208       .  T
C1895      C1896   1.402       .  A
C1895      C1900   1.402       .  A
C1895      C1903   1.443       .  S
C1896      C1897   1.401       .  A
C1896      H1905   1.083       .  S
C1897      C1898   1.402       .  A
C1897      H1906   1.083       .  S
C1898      C1899   1.402       .  A
C1898      C1901   1.443       .  S
C1899      C1900   1.400       .  A
C1899      H1907   1.083       .  S
C1900      H1908   1.083       .  S
C1901      C1902   1.208       .  T
C1903      C1904   1.208       .  T
C1909      C1910   1.402       .  A
C1909      C1914   1.402       .  A
C1909      C1917   1.442       .  S
C1910      C1911   1.400       .  A
C1910      H1919   1.083       .  S
C1911      C1912   1.402       .  A
C1911      H1920   1.083       .  S
C1912      C1913   1.402       .  A
C1912      C1915   1.442       .  S
C1913      C1914   1.400       .  A
C1913      H1921   1.083       .  S
C1914      H1922   1.083       .  S
C1915      C1916   1.207       .  T
C1917      C1918   1.207       .  T
C1923      C1924   1.402       .  A
C1923      C1928   1.401       .  A
C1923      C1931   1.440       .  S
C1924      C1925   1.400       .  A
C1924      H1933   1.083       .  S
C1925      C1926   1.401       .  A
C1925      H1934   1.083       .  S
C1926      C1927   1.401       .  A
C1926      C1929   1.439       .  S
C1927      C1928   1.398       .  A
C1927      H1935   1.084       .  S
C1928      H1936   1.083       .  S
C1929      C1930   1.206       .  T
C1931      C1932   1.206       .  T
C1937      C1938   1.402       .  A
C1937      C1942   1.402       .  A
C1937      C1945   1.442       .  S
C1938      C1939   1.400       .  A
C1938      H1947   1.083       .  S
C1939      C1940   1.402       .  A
C1939      H1948   1.083       .  S
C1940      C1941   1.401       .  A
C1940      C1943   1.441       .  S
C1941      C1942   1.400       .  A
C1941      H1949   1.083       .  S
C1942      H1950   1.083       .  S
C1943      C1944   1.207       .  T
C1945      C1946   1.207       .  T
C1951      C1952   1.401       .  A
C1951      C1956   1.402       .  A
C1951      C1959   1.442       .  S
C1952      C1953   1.399       .  A
C1952      H1961   1.083       .  S
C1953      C1954   1.401       .  A
C1953      H1962   1.083       .  S
C1954      C1955   1.402       .  A
C1954      C1957   1.442       .  S
C1955      C1956   1.400       .  A
C1955      H1963   1.083       .  S
C1956      H1964   1.083       .  S
C1957      C1958   1.207       .  T
C1959      C1960   1.207       .  T
C1965      C1966   1.402       .  A
C1965      C1970   1.403       .  A
C1965      C1973   1.446       .  S
C1966      C1967   1.400       .  A
C1966      H1975   1.083       .  S
C1967      C1968   1.402       .  A
C1967      H1976   1.083       .  S
C1968      C1969   1.403       .  A
C1968      C1971   1.447       .  S
C1969      C1970   1.403       .  A
C1969      H1977   1.083       .  S
C1970      H1978   1.083       .  S
C1971      C1972   1.210       .  T
C1973      C1974   1.210       .  T
C1979      C1980   1.401       .  A
C1979      C1984   1.403       .  A
C1979      C1987   1.442       .  S
C1980      C1981   1.398       .  A
C1980      H1989   1.083       .  S
C1981      C1982   1.401       .  A
C1981      H1990   1.084       .  S
C1982      C1983   1.402       .  A
C1982      C1985   1.441       .  S
C1983      C1984   1.401       .  A
C1983      H1991   1.083       .  S
C1984      H1992   1.083       .  S
C1985      C1986   1.207       .  T
C1987      C1988   1.207       .  T
