geometry optimzed in LAMMPS
_audit_creation_date              2020-11-30 
_audit_creation_method            'lammps2cif' 
_symmetry_space_group_name_H-M    'P1' 
_symmetry_Int_Tables_number       1 
_symmetry_cell_setting            triclinic 
loop_ 
_symmetry_equiv_pos_as_xyz 
  x,y,z 
_cell_length_a                    26.18900403 
_cell_length_b                    48.7820584662915 
_cell_length_c                    24.90175199926059 
_cell_angle_alpha                 89.82693284354787 
_cell_angle_beta                  89.66022310533792 
_cell_angle_gamma                 89.81559494790423 
loop_ 
_atom_site_label 
_atom_site_type_symbol 
_atom_site_fract_x 
_atom_site_fract_y 
_atom_site_fract_z 
_atom_site_charge 
O1          O  0.46519158  0.22608176  0.13543793    -0.79200
O2          O  0.54043329  0.20598601  0.38710385    -0.79300
O3          O  0.39549884  0.24020881  0.44738079    -0.79300
O4          O  0.60310260  0.23161111  0.05136974    -0.79200
O5          O  0.44638579  0.21769905  0.39217957    -0.79300
O6          O  0.53478988  0.20583061  0.06438680    -0.79300
O7          O  0.60035883  0.21519100  0.44268463    -0.79200
O8          O  0.42239885  0.21781745  0.06129799    -0.79300
C9          C  0.42821249  0.21433281  0.11254798     1.10400
C10         C  0.58078983  0.19934571  0.40977395     1.10300
C11         C  0.40312860  0.22316387  0.41030454     1.10500
C12         C  0.58184239  0.21007062  0.06994515     1.10300
O13         O  0.54743955  0.25991504  0.10908031    -0.79200
O14         O  0.46380258  0.27495091  0.38608135    -0.79300
O15         O  0.37769654  0.26648353  0.04601598    -0.79300
O16         O  0.63879758  0.26390150  0.44405075    -0.79200
O17         O  0.56968715  0.26399025  0.39097331    -0.79300
O18         O  0.45216224  0.27440826  0.08391587    -0.79300
O19         O  0.56176410  0.28746207  0.04254628    -0.79200
O20         O  0.45122343  0.28910460  0.46851990    -0.79300
Co21       Co  0.49292668  0.23873013  0.06951637     1.51500
Co22       Co  0.50528795  0.24080153  0.39414823     1.51700
Co23       Co  0.44339928  0.25265733  0.50300180     1.51600
Co24       Co  0.57963665  0.25775196  0.99366624     1.51500
O25         O  0.50775806  0.24466572  0.99237513    -1.41200
C26         C  0.56636201  0.28202441  0.09139128     1.10400
C27         C  0.44694557  0.29258648  0.41875464     1.10500
C28         C  0.40374782  0.27853330  0.08090018     1.10400
C29         C  0.61429421  0.27310152  0.40324395     1.10400
O30         O  0.56731382  0.48872343  0.05838881    -0.79200
O31         O  0.55964234  0.02210333  0.36651874    -0.79300
O32         O  0.53431257  0.44896027  0.44516207    -0.79300
O33         O  0.55996874  0.04691294  0.06315153    -0.79200
O34         O  0.57580037  0.48692723  0.43566190    -0.79300
O35         O  0.53846621  0.02345651  0.13717339    -0.79300
O36         O  0.56655430  0.04578914  0.44178846    -0.79200
O37         O  0.52255276  0.45167408  0.05543909    -0.79300
C38         C  0.56349131  0.46365100  0.06943717     1.10400
C39         C  0.58529326  0.03885072  0.39535568     1.10300
C40         C  0.57195391  0.46184080  0.42406244     1.10500
C41         C  0.56815851  0.04016177  0.11288083     1.10300
O42         O  0.43980524  0.02689992  0.10144409    -0.79200
O43         O  0.47503296  0.47796618  0.38319936    -0.79300
O44         O  0.41458365  0.47102182  0.04946288    -0.79300
O45         O  0.45282727  0.05888515  0.45070928    -0.79200
O46         O  0.45458798  0.02563114  0.39457482    -0.79300
O47         O  0.46470097  0.47956039  0.11619185    -0.79300
O48         O  0.44822503  0.06315648  0.05361849    -0.79200
O49         O  0.42610418  0.46531486  0.45024339    -0.79300
Co50       Co  0.50423677  0.00931823  0.07610743     1.51500
Co51       Co  0.51710536  0.00724168  0.42402351     1.51700
Co52       Co  0.47037877  0.46407433  0.99865253     1.51600
Co53       Co  0.50406799  0.04895163  0.00292416     1.51500
O54         O  0.48120815  0.00537720  0.00087400    -1.42700
C55         C  0.42534187  0.05069580  0.09109314     1.10400
C56         C  0.43381243  0.46662508  0.40083084     1.10500
C57         C  0.42252087  0.46984644  0.09871762     1.10400
C58         C  0.43308658  0.04706188  0.41081159     1.10400
O59         O  0.92710443  0.29418857  0.02648354    -0.79200
O60         O  0.05824040  0.29535482  0.44223510    -0.79300
O61         O  0.04228009  0.27087896  0.12333029    -0.79300
O62         O  0.94277475  0.29025017  0.40615179    -0.79200
O63         O  0.07671369  0.29333664  0.05573005    -0.79300
O64         O  0.86761890  0.27717089  0.43818735    -0.79300
O65         O  0.04291396  0.27165588  0.37226397    -0.79200
O66         O  0.93703568  0.27290063  0.10386945    -0.79300
C67         C  0.92030194  0.29338812  0.07713542     1.10400
C68         C  0.06220459  0.29245955  0.39231860     1.10300
C69         C  0.06897567  0.29098951  0.10522759     1.10500
C70         C  0.89364720  0.29311812  0.40763895     1.10300
O71         O  0.91318232  0.22548708  0.43500723    -0.79200
O72         O  0.10788139  0.23529728  0.06569098    -0.79300
O73         O  0.94555504  0.21422179  0.06508669    -0.79300
O74         O  0.01785847  0.21827426  0.41559458    -0.79200
O75         O  0.09174226  0.23448928  0.44139311    -0.79300
O76         O  0.88400158  0.23932282  0.03542666    -0.79300
O77         O  0.94516588  0.24058098  0.36242622    -0.79200
O78         O  0.03853766  0.21294981  0.08462859    -0.79300
Co79       Co  0.93172510  0.25980886  0.98261374     1.51500
Co80       Co  0.07356247  0.26536821  0.49538991     1.51700
Co81       Co  0.99143063  0.24375327  0.08830915     1.51600
Co82       Co  0.98943903  0.25606142  0.41798765     1.51500
O83         O  0.00587794  0.25465125  0.00946091    -1.41200
C84         C  0.91664948  0.22345738  0.38370417     1.10400
C85         C  0.08541319  0.21541290  0.08963283     1.10500
C86         C  0.89877974  0.21751377  0.05942281     1.10400
C87         C  0.06588582  0.21585844  0.41745381     1.10400
C88         C  0.23862476  0.12912273  0.31744312     0.46400
H89         H  0.23513833  0.12734292  0.36043455    -0.02700
C90         C  0.24539949  0.13034538  0.21491105     0.46400
H91         H  0.24715629  0.12990241  0.17076233    -0.02700
C92         C  0.27103955  0.15378393  0.29644373    -0.16400
C93         C  0.26562149  0.10252518  0.29430168    -0.16100
C94         C  0.18514290  0.13502741  0.29230325    -0.16500
C95         C  0.27807417  0.15258235  0.24050388    -0.16500
C96         C  0.27020244  0.10376882  0.23812961    -0.16000
C97         C  0.18980100  0.13710704  0.23646857    -0.16400
C98         C  0.74793690  0.12406093  0.19175214     0.46400
H99         H  0.74944452  0.11983465  0.14856839    -0.02700
C100        C  0.75820131  0.13049856  0.29262022     0.46400
H101        H  0.76280802  0.13446080  0.33485884    -0.02700
C102        C  0.70914434  0.14519248  0.21304568    -0.16400
C103        C  0.73461938  0.09732238  0.22554399    -0.16100
C104        C  0.79966527  0.13771314  0.20586398    -0.16500
C105        C  0.71339529  0.14755167  0.26864733    -0.16500
C106        C  0.74205895  0.10052918  0.28064775    -0.16000
C107        C  0.80753081  0.13946392  0.26083163    -0.16400
C108        C  0.26204632  0.36932045  0.20519367     0.46400
H109        H  0.25902756  0.37118720  0.16182189    -0.02700
C110        C  0.26643286  0.37422480  0.30709342     0.46400
H111        H  0.26526176  0.37967292  0.34957919    -0.02700
C112        C  0.29899250  0.34777139  0.23098458    -0.16400
C113        C  0.28319295  0.39778681  0.22231182    -0.16100
C114        C  0.21004143  0.36173370  0.23195732    -0.16500
C115        C  0.30551623  0.35268522  0.28717436    -0.16500
C116        C  0.28605378  0.40017589  0.27715237    -0.16000
C117        C  0.21262373  0.36344847  0.28692023    -0.16400
C118        C  0.74043929  0.37978825  0.28657268     0.46400
H119        H  0.74857486  0.38134760  0.32864346    -0.02700
C120        C  0.72950951  0.37956732  0.18519310     0.46400
H121        H  0.72404831  0.38162325  0.14194022    -0.02700
C122        C  0.70046411  0.35842157  0.26924126    -0.16400
C123        C  0.71809078  0.40789272  0.26784616    -0.16100
C124        C  0.79009635  0.37005019  0.25693608    -0.16500
C125        C  0.69533355  0.35768215  0.21306804    -0.16500
C126        C  0.71232240  0.40733698  0.21189334    -0.16000
C127        C  0.78536381  0.37052257  0.20082448    -0.16400
C128        C  0.17003413  0.34341650  0.20324201    -0.04400
C129        C  0.17715102  0.31458962  0.19619243    -0.01600
C130        C  0.14756153  0.29960492  0.15931153     0.03400
C131        C  0.10027105  0.30942426  0.14146348    -0.04400
C132        C  0.09046442  0.33783941  0.14946498    -0.01600
C133        C  0.12594278  0.35479576  0.17824964     0.03400
C134        C  0.21706253  0.29901412  0.22112320     0.38100
C135        C  0.04642354  0.35019171  0.12410157     0.38100
C136        C  0.11800566  0.38414176  0.18015637     0.36500
C137        C  0.17148589  0.27647418  0.13204480     0.36500
N138        N  0.11174089  0.40763001  0.18113901    -0.38300
N139        N  0.19331877  0.25900765  0.11040036    -0.38300
N140        N  0.01141056  0.36022080  0.10368923    -0.37800
N141        N  0.24646001  0.28309511  0.23612585    -0.37800
C142        C  0.09729123  0.31006185  0.36135547    -0.04400
C143        C  0.08429406  0.33663590  0.34366498    -0.01600
C144        C  0.12297702  0.35490399  0.32526435     0.03400
C145        C  0.17465763  0.34632772  0.32051114    -0.04400
C146        C  0.18576009  0.31909536  0.33794024    -0.01600
C147        C  0.14771437  0.30122632  0.35723984     0.03400
C148        C  0.03122573  0.34482828  0.34152144     0.38100
C149        C  0.23565612  0.30756573  0.33813411     0.38100
C150        C  0.16170236  0.27351257  0.37452737     0.36500
C151        C  0.11008271  0.38312279  0.31395819     0.36500
N152        N  0.17617884  0.25208313  0.38759807    -0.38300
N153        N  0.10015016  0.40589158  0.30609321    -0.38300
N154        N  0.27091131  0.29362937  0.34275989    -0.37800
N155        N  0.98923271  0.35186112  0.33745133    -0.37800
C156        C  0.14231688  0.14852761  0.32823376    -0.04400
C157        C  0.14997251  0.15237690  0.38380324    -0.01600
C158        C  0.13098339  0.17616459  0.41045067     0.03400
C159        C  0.09170943  0.19213033  0.38747232    -0.04400
C160        C  0.07416000  0.18349457  0.33638846    -0.01600
C161        C  0.09631539  0.16051159  0.30942183     0.03400
C162        C  0.14944136  0.12740702  0.41482320     0.38100
C163        C  0.04027380  0.20096691  0.30643590     0.38100
C164        C  0.06643862  0.14671304  0.26933786     0.36500
C165        C  0.15256457  0.18417787  0.46105419     0.36500
N166        N  0.04030848  0.13560400  0.23917048    -0.38300
N167        N  0.17105907  0.19164721  0.50036771    -0.38300
N168        N  0.01604786  0.21559595  0.28041047    -0.37800
N169        N  0.14464462  0.10717702  0.43861038    -0.37800
C170        C  0.11156197  0.19535920  0.12753117    -0.04400
C171        C  0.10436091  0.16657470  0.12277067    -0.01600
C172        C  0.12860523  0.14776392  0.15861199     0.03400
C173        C  0.15808133  0.15720823  0.20236068    -0.04400
C174        C  0.15699576  0.18602772  0.21234575    -0.01600
C175        C  0.13195134  0.20446592  0.17669967     0.03400
C176        C  0.06821621  0.15620661  0.08403640     0.38100
C177        C  0.17477880  0.19700971  0.26269966     0.38100
C178        C  0.11668020  0.23106864  0.19705664     0.36500
C179        C  0.11735272  0.11882082  0.15448074     0.36500
N180        N  0.10287617  0.25126502  0.21667013    -0.38300
N181        N  0.10539934  0.09604882  0.15194804    -0.38300
N182        N  0.18495421  0.20667503  0.30362942    -0.37800
N183        N  0.03941829  0.14775696  0.05324214    -0.37800
C184        C  0.86437574  0.19643702  0.08658283    -0.04400
C185        C  0.82845997  0.20501300  0.12481731    -0.01600
C186        C  0.81012223  0.18668418  0.16491884     0.03400
C187        C  0.82128334  0.15801891  0.16369375    -0.04400
C188        C  0.85121496  0.14871336  0.11970636    -0.01600
C189        C  0.87472737  0.16776434  0.08344917     0.03400
C190        C  0.81273593  0.23346012  0.12453409     0.38100
C191        C  0.86203926  0.11971662  0.11462261     0.38100
C192        C  0.90903706  0.15765234  0.04211646     0.36500
C193        C  0.78816447  0.19913368  0.21156019     0.36500
N194        N  0.93547881  0.14945356  0.00836710    -0.38300
N195        N  0.77583446  0.21173654  0.24844885    -0.38300
N196        N  0.87127844  0.09662244  0.11028793    -0.37800
N197        N  0.80023800  0.25614628  0.12201575    -0.37800
C198        C  0.85093744  0.15530566  0.28988631    -0.04400
C199        C  0.88260119  0.17511086  0.26483952    -0.01600
C200        C  0.89728546  0.19909372  0.29296979     0.03400
C201        C  0.89436003  0.20005493  0.35041225    -0.04400
C202        C  0.87359510  0.17674731  0.37616086    -0.01600
C203        C  0.85567263  0.15404269  0.34641184     0.03400
C204        C  0.91546781  0.16679507  0.22089196     0.38100
C205        C  0.85767823  0.17869780  0.43141231     0.38100
C206        C  0.84848581  0.12826100  0.37408450     0.36500
C207        C  0.90958159  0.22310037  0.26078104     0.36500
N208        N  0.84404796  0.10762482  0.39658258    -0.38300
N209        N  0.91800430  0.24202056  0.23393851    -0.38300
N210        N  0.83026411  0.18936007  0.97578123    -0.37800
N211        N  0.94392536  0.16036717  0.18743554    -0.37800
C212        C  0.86865371  0.31367569  0.37000412    -0.04400
C213        C  0.84148228  0.30387022  0.32564560    -0.01600
C214        C  0.82370214  0.32174732  0.28473758     0.03400
C215        C  0.82544791  0.35074262  0.29017461    -0.04400
C216        C  0.85372786  0.36074593  0.33476603    -0.01600
C217        C  0.87636205  0.34241173  0.37331990     0.03400
C218        C  0.83050242  0.27490601  0.32251897     0.38100
C219        C  0.85882091  0.39006606  0.34147929     0.38100
C220        C  0.90393152  0.35329211  0.41881021     0.36500
C221        C  0.80854839  0.30934157  0.23526403     0.36500
N222        N  0.90604767  0.35657196  0.97152801    -0.38300
N223        N  0.79938582  0.29809391  0.19578792    -0.38300
N224        N  0.86298073  0.41353491  0.34636141    -0.37800
N225        N  0.82035773  0.25192180  0.32095206    -0.37800
C226        C  0.88847085  0.31561387  0.10490842    -0.04400
C227        C  0.84012261  0.32305371  0.08462947    -0.01600
C228        C  0.80768884  0.34218871  0.11197778     0.03400
C229        C  0.82321981  0.35561038  0.16081170    -0.04400
C230        C  0.87546323  0.35116622  0.17474067    -0.01600
C231        C  0.90472991  0.32924228  0.15192382     0.03400
C232        C  0.82028534  0.30863393  0.03823667     0.38100
C233        C  0.90121951  0.37036091  0.20939482     0.38100
C234        C  0.94951195  0.31946783  0.18000262     0.36500
C235        C  0.75906165  0.34700770  0.08664913     0.36500
N236        N  0.98410297  0.31123967  0.20393314    -0.38300
N237        N  0.72212508  0.34963187  0.06188694    -0.38300
N238        N  0.92311608  0.38584581  0.23569947    -0.37800
N239        N  0.80193063  0.29750100  0.00228163    -0.37800
C240        C  0.63654900  0.05142686  0.37698613    -0.04400
C241        C  0.67230652  0.03774111  0.34362550    -0.01600
C242        C  0.71046623  0.05290602  0.31476751     0.03400
C243        C  0.71746392  0.08136991  0.32419037    -0.04400
C244        C  0.69622118  0.09066464  0.37428637    -0.01600
C245        C  0.65517979  0.07613749  0.39929137     0.03400
C246        C  0.68484131  0.01003690  0.35866744     0.38100
C247        C  0.72019007  0.11166250  0.40608383     0.38100
C248        C  0.63563002  0.08524961  0.45069739     0.36500
C249        C  0.74809917  0.03848394  0.28261226     0.36500
N250        N  0.62055603  0.09118828  0.49279236    -0.38300
N251        N  0.77876373  0.02679800  0.25798724    -0.38300
N252        N  0.73865670  0.12753419  0.43439617    -0.37800
N253        N  0.69114815  0.49304501  0.38205315    -0.37800
C254        C  0.69313234  0.07828234  0.20249404    -0.04400
C255        C  0.64038460  0.08164544  0.21586850    -0.01600
C256        C  0.60161134  0.07198768  0.18207494     0.03400
C257        C  0.61218380  0.05277753  0.14221542    -0.04400
C258        C  0.66401653  0.04680332  0.13059529    -0.01600
C259        C  0.70419779  0.06000053  0.15948618     0.03400
C260        C  0.62251850  0.09084466  0.26727696     0.38100
C261        C  0.67593048  0.02973853  0.08486885     0.38100
C262        C  0.75675053  0.05477956  0.14439731     0.36500
C263        C  0.55168930  0.08492409  0.18376173     0.36500
N264        N  0.79849974  0.05000244  0.13210695    -0.38300
N265        N  0.51319642  0.09661731  0.18333455    -0.38300
N266        N  0.68890996  0.51327240  0.05605201    -0.37800
N267        N  0.60202449  0.09636492  0.30705180    -0.37800
C268        C  0.31016480  0.08857750  0.20125180    -0.04400
C269        C  0.29706098  0.08001149  0.14801126    -0.01600
C270        C  0.33461183  0.06974015  0.11064303     0.03400
C271        C  0.38522943  0.06428912  0.12706593    -0.04400
C272        C  0.39619881  0.06889996  0.18163047    -0.01600
C273        C  0.36257273  0.08420324  0.21515897     0.03400
C274        C  0.24438267  0.08018244  0.13139114     0.38100
C275        C  0.43906809  0.05467871  0.20599457     0.38100
C276        C  0.38544858  0.09514798  0.26281725     0.36500
C277        C  0.31977179  0.06220378  0.05669690     0.36500
N278        N  0.40874423  0.10146531  0.30000165    -0.38300
N279        N  0.30758916  0.05596767  0.01384687    -0.38300
N280        N  0.47179894  0.04267583  0.22654978    -0.37800
N281        N  0.20286882  0.07950931  0.11607084    -0.37800
C282        C  0.38401609  0.05817401  0.38404531    -0.04400
C283        C  0.35815710  0.08147351  0.40539562    -0.01600
C284        C  0.31079997  0.09028194  0.38407922     0.03400
C285        C  0.29592740  0.08262304  0.33181114    -0.04400
C286        C  0.31406875  0.05656442  0.31585946    -0.01600
C287        C  0.35890872  0.04481036  0.34004470     0.03400
C288        C  0.37616462  0.09521247  0.45318436     0.38100
C289        C  0.28329170  0.04118143  0.27863196     0.38100
C290        C  0.38025481  0.02029226  0.31635507     0.36500
C291        C  0.27101554  0.09129972  0.42413837     0.36500
N292        N  0.39736843  0.00110395  0.29574018    -0.38300
N293        N  0.24192341  0.08981013  0.45910315    -0.38300
N294        N  0.25651808  0.02938306  0.25009698    -0.37800
N295        N  0.39012855  0.10612171  0.49156946    -0.37800
C296        C  0.60224838  0.44988262  0.10611333    -0.04400
C297        C  0.58640825  0.43755515  0.15500484    -0.01600
C298        C  0.62173350  0.42404749  0.18914688     0.03400
C299        C  0.67500055  0.42478385  0.17883712    -0.04400
C300        C  0.69133483  0.43846777  0.13136327    -0.01600
C301        C  0.65523858  0.44937831  0.09396255     0.03400
C302        C  0.53350141  0.43855861  0.17119985     0.38100
C303        C  0.74550927  0.44121993  0.12097971     0.38100
C304        C  0.67171096  0.45581016  0.03984301     0.36500
C305        C  0.60292849  0.40933725  0.23540867     0.36500
N306        N  0.68474294  0.46030816  0.99622287    -0.38300
N307        N  0.58955594  0.39884028  0.27459763    -0.38300
N308        N  0.78889778  0.44381167  0.11362902    -0.37800
N309        N  0.49179973  0.43929584  0.18635838    -0.37800
C310        C  0.68893830  0.42688094  0.31018177    -0.04400
C311        C  0.68572797  0.41975262  0.36590846    -0.01600
C312        C  0.64331563  0.42757682  0.39879779     0.03400
C313        C  0.60925990  0.44848409  0.38313934    -0.04400
C314        C  0.61682277  0.45901869  0.33002841    -0.01600
C315        C  0.65912801  0.45041165  0.29692775     0.03400
C316        C  0.73261010  0.41537992  0.39503947     0.38100
C317        C  0.57915174  0.47693833  0.30613815     0.38100
C318        C  0.67693565  0.46900036  0.25548685     0.36500
C319        C  0.63556319  0.41384350  0.44950742     0.36500
N320        N  0.69112865  0.48455915  0.22357885    -0.38300
N321        N  0.62874712  0.40202217  0.48912095    -0.38300
N322        N  0.54919424  0.49018444  0.28388308    -0.37800
N323        N  0.76953676  0.41332121  0.42002292    -0.37800
C324        C  0.39536269  0.45221760  0.36614670    -0.04400
C325        C  0.41249285  0.43371574  0.32760531    -0.01600
C326        C  0.37787543  0.41894134  0.29563957     0.03400
C327        C  0.32404908  0.41925359  0.30593008    -0.04400
C328        C  0.30701255  0.43650134  0.34821637    -0.01600
C329        C  0.34196666  0.45329106  0.37706016     0.03400
C330        C  0.46656238  0.42744987  0.32537895     0.38100
C331        C  0.25313060  0.43733549  0.36173805     0.38100
C332        C  0.32293457  0.47102537  0.41934525     0.36500
C333        C  0.40115680  0.40535934  0.25108592     0.36500
N334        N  0.30803338  0.48499533  0.45353762    -0.38300
N335        N  0.42719568  0.39767757  0.21676580    -0.38300
N336        N  0.21008687  0.43801783  0.37244611    -0.37800
N337        N  0.50952038  0.42223131  0.32623891    -0.37800
C338        C  0.38534653  0.45256774  0.13031455    -0.04400
C339        C  0.38022000  0.42503878  0.11506420    -0.01600
C340        C  0.34620602  0.40731536  0.14262256     0.03400
C341        C  0.31203139  0.41716921  0.18329152    -0.04400
C342        C  0.31099983  0.44606667  0.19079102    -0.01600
C343        C  0.34834357  0.46334057  0.16596459     0.03400
C344        C  0.41334280  0.41413456  0.07266647     0.38100
C345        C  0.27083008  0.45816426  0.22328090     0.38100
C346        C  0.34655831  0.49241621  0.17452232     0.36500
C347        C  0.35993613  0.37907333  0.13718372     0.36500
N348        N  0.34420764  0.01543009  0.18508742    -0.38300
N349        N  0.38298824  0.35923702  0.13011002    -0.38300
N350        N  0.23846848  0.46776946  0.24893444    -0.37800
N351        N  0.43929659  0.40535916  0.03904285    -0.37800
C352        C  0.41569870  0.31552377  0.39763853    -0.04400
C353        C  0.36350331  0.31737462  0.40996716    -0.01600
C354        C  0.33278241  0.33613872  0.38207913     0.03400
C355        C  0.34650894  0.34336585  0.32782763    -0.04400
C356        C  0.40044675  0.34223188  0.31673963    -0.01600
C357        C  0.43435171  0.33198278  0.35605698     0.03400
C358        C  0.33845499  0.29824877  0.44608634     0.38100
C359        C  0.42234425  0.34483805  0.26389905     0.38100
C360        C  0.48735929  0.33990005  0.35683121     0.36500
C361        C  0.28675190  0.34483588  0.41007783     0.36500
N362        N  0.52881604  0.34755625  0.36133567    -0.38300
N363        N  0.25077506  0.35126839  0.43427567    -0.38300
N364        N  0.44343864  0.34404000  0.22296600    -0.37800
N365        N  0.31432781  0.28377877  0.47287300    -0.37800
C366        C  0.31741096  0.32422042  0.19488550    -0.04400
C367        C  0.35455333  0.30489572  0.21141724    -0.01600
C368        C  0.38742127  0.29316728  0.17358851     0.03400
C369        C  0.37760548  0.29597300  0.11895028    -0.04400
C370        C  0.33545697  0.31064723  0.10162277    -0.01600
C371        C  0.30213081  0.32209627  0.13906581     0.03400
C372        C  0.35719082  0.29386813  0.26478586     0.38100
C373        C  0.33413865  0.32063706  0.04661765     0.38100
C374        C  0.25435162  0.33102029  0.11541425     0.36500
C375        C  0.43434724  0.28052842  0.19057206     0.36500
N376        N  0.21864277  0.33835125  0.09209783    -0.38300
N377        N  0.47345065  0.27124250  0.20138919    -0.38300
N378        N  0.33354634  0.33106332  0.00492261    -0.37800
N379        N  0.36356557  0.28390769  0.30631950    -0.37800
C380        C  0.63341985  0.29658489  0.37193293    -0.04400
C381        C  0.60916135  0.30505602  0.32404404    -0.01600
C382        C  0.62475376  0.32904162  0.29796641     0.03400
C383        C  0.67289181  0.34064655  0.31022249    -0.04400
C384        C  0.69416485  0.33333144  0.36162665    -0.01600
C385        C  0.67061645  0.31352438  0.39392136     0.03400
C386        C  0.56567551  0.29051203  0.30281285     0.38100
C387        C  0.73852872  0.34517364  0.38618307     0.38100
C388        C  0.68211772  0.31214958  0.45117622     0.36500
C389        C  0.58869003  0.34138125  0.26109957     0.36500
N390        N  0.69030868  0.31129771  0.49674979    -0.38300
N391        N  0.55671732  0.34950872  0.23331443    -0.38300
N392        N  0.77147230  0.35359684  0.41195948    -0.37800
N393        N  0.52995263  0.27892799  0.28852014    -0.37800
C394        C  0.59751052  0.30049279  0.12497254    -0.04400
C395        C  0.64051701  0.29082524  0.15285746    -0.01600
C396        C  0.66772307  0.30847753  0.18679529     0.03400
C397        C  0.66395754  0.33746463  0.17997915    -0.04400
C398        C  0.62757622  0.34676412  0.14131795    -0.01600
C399        C  0.59027260  0.32886476  0.12097865     0.03400
C400        C  0.66388973  0.26493535  0.13874992     0.38100
C401        C  0.63083900  0.37275578  0.11469220     0.38100
C402        C  0.54557927  0.33972307  0.09356794     0.36500
C403        C  0.69525402  0.29549298  0.23004749     0.36500
N404        N  0.50966358  0.34814813  0.07216649    -0.38300
N405        N  0.71352868  0.28346855  0.26522980    -0.38300
N406        N  0.63232339  0.39130833  0.08591294    -0.37800
N407        N  0.68586010  0.24536162  0.12617635    -0.37800
C408        C  0.60973632  0.17526798  0.39159815    -0.04400
C409        C  0.59020372  0.16069053  0.34818151    -0.01600
C410        C  0.62175197  0.15475072  0.30409943     0.03400
C411        C  0.67532308  0.15895916  0.30796443    -0.04400
C412        C  0.69423719  0.17133200  0.35512275    -0.01600
C413        C  0.66253583  0.17591521  0.39918089     0.03400
C414        C  0.53759331  0.15181178  0.34981241     0.38100
C415        C  0.74175118  0.18599452  0.35472638     0.38100
C416        C  0.68441590  0.18456745  0.44996581     0.36500
C417        C  0.59675990  0.14783272  0.25445807     0.36500
N418        N  0.70250049  0.19137200  0.49005196    -0.38300
N419        N  0.57510802  0.14273348  0.21542623    -0.38300
N420        N  0.77635903  0.20045548  0.35718288    -0.37800
N421        N  0.49610875  0.14395548  0.35257167    -0.37800
C422        C  0.67535649  0.16185430  0.17546159    -0.04400
C423        C  0.66008664  0.15147735  0.12386047    -0.01600
C424        C  0.63118371  0.16780850  0.08860821     0.03400
C425        C  0.61052856  0.19241892  0.10621787    -0.04400
C426        C  0.61796011  0.20070408  0.15907047    -0.01600
C427        C  0.65554086  0.18819724  0.19030037     0.03400
C428        C  0.67048805  0.12412442  0.10463959     0.38100
C429        C  0.58581944  0.22151813  0.18343280     0.38100
C430        C  0.66929437  0.20349298  0.23775008     0.36500
C431        C  0.61965232  0.15847599  0.03496277     0.36500
N432        N  0.67475526  0.21777117  0.27434461    -0.38300
N433        N  0.61025590  0.15072100  0.99247091    -0.38300
N434        N  0.56175792  0.23734001  0.20706124    -0.37800
N435        N  0.67778302  0.10334015  0.08372903    -0.37800
C436        C  0.36080336  0.20921316  0.38622059    -0.04400
C437        C  0.33739317  0.18783174  0.41370186    -0.01600
C438        C  0.29906046  0.17285592  0.38855224     0.03400
C439        C  0.28863646  0.17700326  0.33267757    -0.04400
C440        C  0.30670852  0.20194781  0.30978872    -0.01600
C441        C  0.34792751  0.21506690  0.33317982     0.03400
C442        C  0.35881578  0.17791889  0.46395581     0.38100
C443        C  0.28548796  0.21463359  0.26225892     0.38100
C444        C  0.38541754  0.22767682  0.29838704     0.36500
C445        C  0.26760772  0.15755365  0.42526175     0.36500
N446        N  0.41752762  0.23607965  0.27105688    -0.38300
N447        N  0.24558323  0.14727876  0.46022260    -0.38300
N448        N  0.26951858  0.22572703  0.22476976    -0.37800
N449        N  0.37650194  0.16894550  0.50268546    -0.37800
C450        C  0.31816200  0.16701201  0.20612182    -0.04400
C451        C  0.36972489  0.16920896  0.22291057    -0.01600
C452        C  0.40635641  0.18298631  0.19088378     0.03400
C453        C  0.39147940  0.19723745  0.14401057    -0.04400
C454        C  0.33973326  0.19655704  0.12911362    -0.01600
C455        C  0.30516244  0.17924626  0.15602193     0.03400
C456        C  0.38507151  0.15994666  0.27547985     0.38100
C457        C  0.31939236  0.21564569  0.08967338     0.38100
C458        C  0.25648339  0.17534212  0.13030701     0.36500
C459        C  0.45872601  0.18388378  0.20897264     0.36500
N460        N  0.22048885  0.17250308  0.10434569    -0.38300
N461        N  0.49982169  0.18487993  0.22538777    -0.38300
N462        N  0.29986316  0.23031351  0.05947744    -0.37800
N463        N  0.39715033  0.15494044  0.31898452    -0.37800
O464        O  0.47395588  0.22418024  0.61803284    -0.79200
O465        O  0.54186382  0.20031141  0.93798226    -0.79300
O466        O  0.39041775  0.23637970  0.96073865    -0.79300
O467        O  0.60908851  0.22916633  0.53564987    -0.79200
O468        O  0.44399619  0.20434782  0.94783531    -0.79300
O469        O  0.54078630  0.20390968  0.54838305    -0.79300
O470        O  0.60584106  0.22887089  0.94398577    -0.79200
O471        O  0.42851777  0.21688286  0.54464392    -0.79300
C472        C  0.43560050  0.21321458  0.59565329     1.10400
C473        C  0.58792581  0.20572532  0.93059968     1.10300
C474        C  0.40070237  0.21362656  0.94027046     1.10500
C475        C  0.58674264  0.20896675  0.55830933     1.10300
O476        O  0.55540854  0.25988944  0.58581227    -0.79200
O477        O  0.44742845  0.26134325  0.89870975    -0.79300
O478        O  0.38706544  0.26678259  0.54005972    -0.79300
O479        O  0.56229981  0.28301709  0.93589529    -0.79200
O480        O  0.54698984  0.25062278  0.87767807    -0.79300
O481        O  0.46370959  0.27297496  0.57228966    -0.79300
O482        O  0.56802444  0.28418246  0.51336960    -0.79200
O483        O  0.44346718  0.28632545  0.97258836    -0.79300
Co484      Co  0.49997228  0.23687347  0.55339481     1.51500
Co485      Co  0.49493462  0.22938981  0.91935643     1.51700
Co486      Co  0.43693628  0.25292028  0.01517261     1.51600
Co487      Co  0.57895861  0.24990132  0.47330390     1.51500
O488        O  0.50869764  0.23990557  0.47554175    -1.41200
C489        C  0.57474858  0.28075397  0.56314251     1.10400
C490        C  0.43579810  0.28364529  0.92310904     1.10500
C491        C  0.41589069  0.27774949  0.57371422     1.10400
C492        C  0.56560290  0.27367219  0.88910572     1.10400
O493        O  0.57327545  0.48987789  0.56706942    -0.79200
O494        O  0.54586738  0.02718543  0.86979406    -0.79300
O495        O  0.52367574  0.45131694  0.94219668    -0.79300
O496        O  0.56916203  0.04568591  0.55664299    -0.79200
O497        O  0.56914723  0.48809211  0.93251343    -0.79300
O498        O  0.53777765  0.02940150  0.63388222    -0.79300
O499        O  0.56500335  0.04525153  0.94941973    -0.79200
O500        O  0.53249875  0.45155989  0.56146822    -0.79300
C501        C  0.57060335  0.46484250  0.57927404     1.10400
C502        C  0.57535913  0.04192369  0.89889325     1.10300
C503        C  0.56404513  0.46270851  0.92367436     1.10500
C504        C  0.57128199  0.04355264  0.60852295     1.10300
O505        O  0.43848657  0.02601270  0.59329050    -0.79200
O506        O  0.46775939  0.48093630  0.88079010    -0.79300
O507        O  0.42384324  0.46840820  0.55262524    -0.79300
O508        O  0.45360005  0.06240397  0.94749546    -0.79200
O509        O  0.44206163  0.02609023  0.90159614    -0.79300
O510        O  0.47039662  0.48031525  0.62033046    -0.79300
O511        O  0.45988824  0.06385170  0.55750339    -0.79200
O512        O  0.41648256  0.47033253  0.94686963    -0.79300
Co513      Co  0.50691609  0.01023286  0.57548998     1.51500
Co514      Co  0.50662446  0.00837228  0.92509523     1.51700
Co515      Co  0.48060013  0.46172977  0.50247254     1.51600
Co516      Co  0.50975396  0.04799039  0.50113644     1.51500
O517        O  0.48859048  0.00392918  0.49930432    -1.42700
C518        C  0.43079175  0.05109310  0.58945743     1.10400
C519        C  0.42605990  0.46986313  0.89786226     1.10500
C520        C  0.43009245  0.46889774  0.60226993     1.10400
C521        C  0.42783042  0.04978477  0.91287037     1.10400
O522        O  0.92200990  0.29557863  0.52481589    -0.79200
O523        O  0.07420199  0.29230074  0.95244879    -0.79300
O524        O  0.04131081  0.27295703  0.61439954    -0.79300
O525        O  0.95234822  0.28529210  0.91239359    -0.79200
O526        O  0.06590560  0.29679705  0.54482292    -0.79300
O527        O  0.87566051  0.27374744  0.93944418    -0.79300
O528        O  0.04895853  0.26660645  0.88759966    -0.79200
O529        O  0.93455277  0.27401164  0.60127228    -0.79300
C530        C  0.91713365  0.29472722  0.57576266     1.10400
C531        C  0.07165958  0.28812995  0.90308495     1.10300
C532        C  0.06460783  0.29386503  0.59470158     1.10500
C533        C  0.90338218  0.28882974  0.90939599     1.10300
O534        O  0.92502645  0.22320195  0.93784451    -0.79200
O535        O  0.10319807  0.23908891  0.55353655    -0.79300
O536        O  0.94260092  0.21559385  0.56259560    -0.79300
O537        O  0.02856644  0.21262810  0.93537967    -0.79200
O538        O  0.10278864  0.23161785  0.95050706    -0.79300
O539        O  0.87875876  0.23995016  0.53432828    -0.79300
O540        O  0.96322246  0.23466192  0.86307865    -0.79200
O541        O  0.03746007  0.21475561  0.57672414    -0.79300
Co542      Co  0.92312019  0.26132308  0.47952125     1.51500
Co543      Co  0.08426526  0.26228797  0.00573145     1.51700
Co544      Co  0.98896905  0.24523159  0.58267105     1.51600
Co545      Co  0.99109791  0.24830515  0.92947698     1.51500
O546        O  0.99662644  0.25398704  0.50157491    -1.41200
C547        C  0.93228781  0.21875912  0.88696645     1.10400
C548        C  0.08447060  0.21825407  0.57785214     1.10500
C549        C  0.89556023  0.21850383  0.55874178     1.10400
C550        C  0.07656048  0.21196244  0.93030365     1.10400
C551        C  0.24340693  0.13699185  0.80737443     0.46400
H552        H  0.23869946  0.13870347  0.85023308    -0.02700
C553        C  0.25275747  0.13458290  0.70542110     0.46400
H554        H  0.25588772  0.13254948  0.66143318    -0.02700
C555        C  0.27730878  0.16051613  0.78467863    -0.16400
C556        C  0.27072716  0.10958214  0.78929230    -0.16100
C557        C  0.19057286  0.14132166  0.77999284    -0.16500
C558        C  0.28447391  0.15779112  0.72909101    -0.16500
C559        C  0.27728067  0.10885455  0.73312574    -0.16000
C560        C  0.19645992  0.14192370  0.72417082    -0.16400
C561        C  0.74736805  0.12810655  0.69750513     0.46400
H562        H  0.75175297  0.12333223  0.65494039    -0.02700
C563        C  0.75282141  0.13492763  0.79867786     0.46400
H564        H  0.75430217  0.13880689  0.84140792    -0.02700
C565        C  0.70978644  0.15054378  0.71542844    -0.16400
C566        C  0.72912718  0.10216754  0.73112552    -0.16100
C567        C  0.79956791  0.14034477  0.71420394    -0.16500
C568        C  0.71302392  0.15394447  0.77135780    -0.16500
C569        C  0.73306241  0.10573794  0.78623975    -0.16000
C570        C  0.80500633  0.14117268  0.76984605    -0.16400
C571        C  0.26904546  0.36625331  0.69986275     0.46400
H572        H  0.26672918  0.36933170  0.65691569    -0.02700
C573        C  0.26869019  0.36889442  0.80246745     0.46400
H574        H  0.26750278  0.37213188  0.84626455    -0.02700
C575        C  0.30467434  0.34393423  0.72528274    -0.16400
C576        C  0.29022023  0.39420403  0.72038882    -0.16100
C577        C  0.21562805  0.35838904  0.72347513    -0.16500
C578        C  0.30669042  0.34702487  0.78215107    -0.16500
C579        C  0.29098867  0.39533837  0.77536540    -0.16000
C580        C  0.21521740  0.35923065  0.77878850    -0.16400
C581        C  0.72828565  0.36636950  0.79228359     0.46400
H582        H  0.73155285  0.36296595  0.83566652    -0.02700
C583        C  0.72584723  0.37524217  0.69088470     0.46400
H584        H  0.72210056  0.38077321  0.64903845    -0.02700
C585        C  0.69198009  0.34626106  0.76211101    -0.16400
C586        C  0.70559560  0.39568074  0.78004087    -0.16100
C587        C  0.78197911  0.36141199  0.76429459    -0.16500
C588        C  0.69180075  0.35081151  0.70695764    -0.16500
C589        C  0.70496685  0.39999958  0.72432418    -0.16000
C590        C  0.78103171  0.36616160  0.70832554    -0.16400
C591        C  0.17538437  0.34204175  0.69067941    -0.04400
C592        C  0.18470582  0.31520464  0.66970706    -0.01600
C593        C  0.15134773  0.30291251  0.63262621     0.03400
C594        C  0.10063310  0.31167524  0.62764081    -0.04400
C595        C  0.08990017  0.33860876  0.64655934    -0.01600
C596        C  0.12722170  0.35376878  0.67679995     0.03400
C597        C  0.22649726  0.29773370  0.68461179     0.38100
C598        C  0.04367402  0.35216426  0.62911020     0.38100
C599        C  0.11657898  0.38187866  0.69168206     0.36500
C600        C  0.17201511  0.28247353  0.59585338     0.36500
N601        N  0.10789817  0.40444314  0.70278326    -0.38300
N602        N  0.19157046  0.26716758  0.56680495    -0.38300
N603        N  0.00751464  0.36356167  0.61439869    -0.37800
N604        N  0.25579520  0.28017272  0.69007687    -0.37800
C605        C  0.10271850  0.30636789  0.86582264    -0.04400
C606        C  0.09558705  0.33519204  0.86229746    -0.01600
C607        C  0.13114787  0.35229487  0.83359247     0.03400
C608        C  0.17640217  0.34124294  0.81028103    -0.04400
C609        C  0.18275806  0.31231163  0.81535877    -0.01600
C610        C  0.14644850  0.29539317  0.84164137     0.03400
C611        C  0.05193868  0.34730471  0.88916958     0.38100
C612        C  0.22949780  0.29883108  0.80205344     0.38100
C613        C  0.15806201  0.26665335  0.85017338     0.36500
C614        C  0.12126124  0.38137334  0.82907885     0.36500
N615        N  0.16917848  0.24408049  0.85764498    -0.38300
N616        N  0.11250873  0.40456786  0.82554099    -0.38300
N617        N  0.26367717  0.28409970  0.79794144    -0.37800
N618        N  0.01715872  0.35687673  0.91107947    -0.37800
C619        C  0.14537893  0.15252441  0.81562426    -0.04400
C620        C  0.14298693  0.14625700  0.87128852    -0.01600
C621        C  0.12242314  0.16532688  0.90947140     0.03400
C622        C  0.09973837  0.19042969  0.89227327    -0.04400
C623        C  0.09318295  0.19335400  0.83605207    -0.01600
C624        C  0.10998314  0.17288401  0.79951354     0.03400
C625        C  0.15627980  0.11872778  0.88828923     0.38100
C626        C  0.07244441  0.21835151  0.81390169     0.38100
C627        C  0.07632925  0.16744232  0.75518820     0.36500
C628        C  0.13444500  0.16095917  0.96524331     0.36500
N629        N  0.04736680  0.16343863  0.72124114    -0.38300
N630        N  0.14944690  0.15694944  0.00809166    -0.38300
N631        N  0.05848009  0.23862013  0.79470411    -0.37800
N632        N  0.16582698  0.09648708  0.90118416    -0.37800
C633        C  0.11536956  0.19866763  0.61284813    -0.04400
C634        C  0.11124137  0.16969050  0.60742055    -0.01600
C635        C  0.13469902  0.15133315  0.64512651     0.03400
C636        C  0.16557266  0.16131229  0.68750351    -0.04400
C637        C  0.16784411  0.19035981  0.69345927    -0.01600
C638        C  0.14012073  0.20833846  0.65923404     0.03400
C639        C  0.08174014  0.15861178  0.56351653     0.38100
C640        C  0.19468689  0.20244373  0.73781465     0.38100
C641        C  0.12941558  0.23575865  0.67825433     0.36500
C642        C  0.12210401  0.12251053  0.64381134     0.36500
N643        N  0.11975090  0.25667914  0.69752048    -0.38300
N644        N  0.10964637  0.09977769  0.64355509    -0.38300
N645        N  0.21363236  0.21344351  0.77344686    -0.37800
N646        N  0.05854271  0.14980403  0.52816194    -0.37800
C647        C  0.86361157  0.19757678  0.58966793    -0.04400
C648        C  0.82884487  0.20666219  0.62839182    -0.01600
C649        C  0.81358650  0.18939126  0.67187772     0.03400
C650        C  0.82410215  0.16058139  0.67270877    -0.04400
C651        C  0.85256913  0.15065850  0.62799222    -0.01600
C652        C  0.87608416  0.16908786  0.59038277     0.03400
C653        C  0.81051164  0.23458482  0.62393088     0.38100
C654        C  0.86063168  0.12145979  0.62224050     0.38100
C655        C  0.91276258  0.15840203  0.55190430     0.36500
C656        C  0.79270597  0.20342138  0.71704287     0.36500
N657        N  0.94160039  0.14975293  0.52085856    -0.38300
N658        N  0.77959587  0.21888129  0.74912370    -0.38300
N659        N  0.86770886  0.09820510  0.61707290    -0.37800
N660        N  0.79634180  0.25671891  0.61659999    -0.37800
C661        C  0.85028756  0.15335882  0.80162331    -0.04400
C662        C  0.89244859  0.16628622  0.77708949    -0.01600
C663        C  0.91819431  0.18804612  0.80323366     0.03400
C664        C  0.90767786  0.19447458  0.85818919    -0.04400
C665        C  0.87405251  0.17628990  0.88571850    -0.01600
C666        C  0.85031150  0.15433298  0.85851543     0.03400
C667        C  0.91870295  0.15241116  0.73377506     0.38100
C668        C  0.85237818  0.18338561  0.93727329     0.38100
C669        C  0.83177519  0.13137594  0.89012156     0.36500
C670        C  0.95131369  0.20473096  0.77009919     0.36500
N671        N  0.81760777  0.11312767  0.91595648    -0.38300
N672        N  0.97514669  0.21774919  0.74030916    -0.38300
N673        N  0.84052522  0.18140273  0.47385819    -0.37800
N674        N  0.94192692  0.14099815  0.70105207    -0.37800
C675        C  0.87979152  0.30908199  0.86963265    -0.04400
C676        C  0.86161379  0.29944120  0.82001872    -0.01600
C677        C  0.83444212  0.31678699  0.78392997     0.03400
C678        C  0.82256402  0.34460928  0.79635972    -0.04400
C679        C  0.84372408  0.35476812  0.84516663    -0.01600
C680        C  0.87228095  0.33732988  0.88099835     0.03400
C681        C  0.86766540  0.27073268  0.80693193     0.38100
C682        C  0.83502406  0.38314776  0.85940583     0.38100
C683        C  0.89108530  0.34805361  0.93126497     0.36500
C684        C  0.81897993  0.30495754  0.73406198     0.36500
N685        N  0.92601719  0.36200272  0.45506402    -0.38300
N686        N  0.81081432  0.29474358  0.69334902    -0.38300
N687        N  0.82826708  0.40584488  0.87089401    -0.37800
N688        N  0.87086533  0.24793293  0.79506284    -0.37800
C689        C  0.88680634  0.31714351  0.60547872    -0.04400
C690        C  0.83967317  0.32654640  0.58500234    -0.01600
C691        C  0.80850140  0.34573617  0.61343583     0.03400
C692        C  0.82169429  0.35525976  0.66626135    -0.04400
C693        C  0.87364764  0.35025212  0.68042779    -0.01600
C694        C  0.90339691  0.32937712  0.65413101     0.03400
C695        C  0.81995576  0.31488405  0.53589909     0.38100
C696        C  0.89794234  0.36762392  0.71968609     0.38100
C697        C  0.94862673  0.31891916  0.68039375     0.36500
C698        C  0.76664227  0.35711565  0.58288652     0.36500
N699        N  0.98384966  0.31016968  0.70255475    -0.38300
N700        N  0.73501671  0.36582037  0.55528348    -0.38300
N701        N  0.91815542  0.38180061  0.75003037    -0.37800
N702        N  0.80172410  0.30620812  0.49742762    -0.37800
C703        C  0.62237079  0.05660498  0.87691093    -0.04400
C704        C  0.66448302  0.04322392  0.85242379    -0.01600
C705        C  0.70212656  0.05867457  0.82361338     0.03400
C706        C  0.70415344  0.08767469  0.82819385    -0.04400
C707        C  0.67345347  0.09881983  0.87061555    -0.01600
C708        C  0.63000237  0.08441528  0.89005281     0.03400
C709        C  0.67826551  0.01633560  0.87171134     0.38100
C710        C  0.69183942  0.12054281  0.90419596     0.38100
C711        C  0.59022661  0.09901946  0.91914854     0.36500
C712        C  0.74296678  0.04450771  0.79575465     0.36500
N713        N  0.55621645  0.10954138  0.94074454    -0.38300
N714        N  0.77593425  0.03299270  0.77433562    -0.38300
N715        N  0.70739533  0.13630802  0.93453302    -0.37800
N716        N  0.68927591  0.49725379  0.89110065    -0.37800
C717        C  0.68917097  0.08311949  0.70562373    -0.04400
C718        C  0.63557640  0.08700193  0.71353068    -0.01600
C719        C  0.59973138  0.07719488  0.67657322     0.03400
C720        C  0.61328230  0.05741057  0.63889451    -0.04400
C721        C  0.66585932  0.05147656  0.63179478    -0.01600
C722        C  0.70351908  0.06442607  0.66452385     0.03400
C723        C  0.61268888  0.09684811  0.76209921     0.38100
C724        C  0.68161959  0.03503026  0.58653258     0.38100
C725        C  0.75701661  0.05829032  0.65596010     0.36500
C726        C  0.54985299  0.09025951  0.67349451     0.36500
N727        N  0.79960040  0.05278400  0.64950552    -0.38300
N728        N  0.51150606  0.10198481  0.67038873    -0.38300
N729        N  0.69351702  0.51921574  0.55390829    -0.37800
N730        N  0.58579937  0.10296852  0.79705410    -0.37800
C731        C  0.31720694  0.09175476  0.69884829    -0.04400
C732        C  0.30334827  0.08130161  0.64722111    -0.01600
C733        C  0.34013190  0.06955619  0.61066538     0.03400
C734        C  0.39140262  0.06526319  0.62590581    -0.04400
C735        C  0.40280132  0.07058571  0.68010810    -0.01600
C736        C  0.36939499  0.08641193  0.71347326     0.03400
C737        C  0.25008516  0.07975669  0.63318307     0.38100
C738        C  0.44561189  0.05631973  0.70457783     0.38100
C739        C  0.39207998  0.09587442  0.76244124     0.36500
C740        C  0.32380459  0.05832964  0.55986195     0.36500
N741        N  0.41585354  0.10065333  0.80022597    -0.38300
N742        N  0.31118127  0.04856604  0.51981782    -0.38300
N743        N  0.47809414  0.04448125  0.72591850    -0.37800
N744        N  0.20780689  0.07731237  0.62121315    -0.37800
C745        C  0.38079515  0.06264203  0.88603829    -0.04400
C746        C  0.36010106  0.08779499  0.90486683    -0.01600
C747        C  0.31614218  0.09953354  0.88095373     0.03400
C748        C  0.29791267  0.09026091  0.83026143    -0.04400
C749        C  0.31188430  0.06300133  0.81705807    -0.01600
C750        C  0.35382293  0.04965061  0.84312475     0.03400
C751        C  0.38314508  0.10230552  0.94941049     0.38100
C752        C  0.28196180  0.04834502  0.77774347     0.38100
C753        C  0.37141486  0.02384778  0.82119618     0.36500
C754        C  0.28326991  0.11446469  0.91733882     0.36500
N755        N  0.38519778  0.00361205  0.80175831    -0.38300
N756        N  0.25753605  0.12507631  0.94904841    -0.38300
N757        N  0.25759028  0.03663724  0.74676663    -0.37800
N758        N  0.40129701  0.11429356  0.98446837    -0.37800
C759        C  0.60707741  0.45202435  0.62027399    -0.04400
C760        C  0.58784632  0.44002345  0.66842013    -0.01600
C761        C  0.61916740  0.42355264  0.70220405     0.03400
C762        C  0.67252540  0.42122498  0.69332406    -0.04400
C763        C  0.69298311  0.43558401  0.64808027    -0.01600
C764        C  0.66046850  0.44962866  0.61077325     0.03400
C765        C  0.53488946  0.44319363  0.68335156     0.38100
C766        C  0.74754330  0.43462240  0.63802234     0.38100
C767        C  0.68088245  0.45761798  0.55891944     0.36500
C768        C  0.59468936  0.40652164  0.74237927     0.36500
N769        N  0.69734229  0.46306248  0.51699626    -0.38300
N770        N  0.57501758  0.39317899  0.77484932    -0.38300
N771        N  0.79109294  0.43386715  0.62994702    -0.37800
N772        N  0.49336243  0.44499872  0.69882315    -0.37800
C773        C  0.67556447  0.41372703  0.82301222    -0.04400
C774        C  0.64939927  0.40268417  0.86953025    -0.01600
C775        C  0.61602941  0.41895558  0.90280510     0.03400
C776        C  0.60326841  0.44627077  0.88961405    -0.04400
C777        C  0.62576577  0.45652363  0.84147235    -0.01600
C778        C  0.66652186  0.44231863  0.81461946     0.03400
C779        C  0.65367213  0.37445920  0.88561891     0.38100
C780        C  0.60231593  0.47933470  0.81355484     0.38100
C781        C  0.70014834  0.45811050  0.78010414     0.36500
C782        C  0.59129189  0.40655692  0.94925948     0.36500
N783        N  0.72682547  0.47124364  0.75326271    -0.38300
N784        N  0.57073760  0.39643005  0.98543333    -0.38300
N785        N  0.58395634  0.49662583  0.78819646    -0.37800
N786        N  0.65378520  0.35281607  0.90452753    -0.37800
C787        C  0.39060251  0.45305997  0.86393388    -0.04400
C788        C  0.41155665  0.43509208  0.82659017    -0.01600
C789        C  0.38047352  0.41698627  0.79715641     0.03400
C790        C  0.32640937  0.41493723  0.80641160    -0.04400
C791        C  0.30583990  0.43226118  0.84675570    -0.01600
C792        C  0.33724781  0.45127056  0.87475466     0.03400
C793        C  0.46684749  0.43384708  0.82141374     0.38100
C794        C  0.25177156  0.43105152  0.85898323     0.38100
C795        C  0.31442110  0.46861743  0.91561903     0.36500
C796        C  0.40843120  0.40219796  0.75721108     0.36500
N797        N  0.29631640  0.48221533  0.94869005    -0.38300
N798        N  0.44030913  0.39494673  0.72829128    -0.38300
N799        N  0.20862598  0.43029992  0.86902386    -0.37800
N800        N  0.51081515  0.43317300  0.81840531    -0.37800
C801        C  0.39387305  0.45123985  0.63412169    -0.04400
C802        C  0.39278781  0.42333790  0.62090009    -0.01600
C803        C  0.35923642  0.40508975  0.64747916     0.03400
C804        C  0.32106550  0.41436275  0.68443849    -0.04400
C805        C  0.31767830  0.44334449  0.69145352    -0.01600
C806        C  0.35480744  0.46141123  0.66811555     0.03400
C807        C  0.42999495  0.41264156  0.58207464     0.38100
C808        C  0.27550209  0.45483600  0.72188882     0.38100
C809        C  0.35115856  0.49054980  0.67708777     0.36500
C810        C  0.37780641  0.37761715  0.64682923     0.36500
N811        N  0.34652794  0.01387864  0.68000873    -0.38300
N812        N  0.40553313  0.35923088  0.64500292    -0.38300
N813        N  0.24179734  0.46435240  0.74570568    -0.37800
N814        N  0.45925539  0.40394198  0.55150784    -0.37800
C815        C  0.40409868  0.30435849  0.89620484    -0.04400
C816        C  0.35063936  0.30328736  0.90073250    -0.01600
C817        C  0.32085793  0.32214067  0.87198636     0.03400
C818        C  0.34154707  0.33450588  0.82450306    -0.04400
C819        C  0.39597512  0.33587370  0.82188010    -0.01600
C820        C  0.42573233  0.32446144  0.86327550     0.03400
C821        C  0.32498663  0.28293939  0.93374357     0.38100
C822        C  0.42338110  0.34090115  0.77301369     0.38100
C823        C  0.47779718  0.33342668  0.87160202     0.36500
C824        C  0.27125636  0.32866410  0.89476020     0.36500
N825        N  0.51858771  0.34162227  0.87891915    -0.38300
N826        N  0.23321980  0.33369962  0.91658494    -0.38300
N827        N  0.44973555  0.34100984  0.73568852    -0.37800
N828        N  0.30168736  0.26744032  0.95912187    -0.37800
C829        C  0.32954835  0.32273939  0.68756336    -0.04400
C830        C  0.36304150  0.30128622  0.70472831    -0.01600
C831        C  0.39500199  0.28796635  0.66755144     0.03400
C832        C  0.39423124  0.29554521  0.61355362    -0.04400
C833        C  0.36050977  0.31513342  0.59563935    -0.01600
C834        C  0.32265375  0.32456058  0.62982420     0.03400
C835        C  0.36187220  0.28877790  0.75706079     0.38100
C836        C  0.37254352  0.33070380  0.54743403     0.38100
C837        C  0.27732433  0.33305669  0.60103210     0.36500
C838        C  0.42829500  0.26621219  0.68578131     0.36500
N839        N  0.24287380  0.33988810  0.57522822    -0.38300
N840        N  0.45357271  0.24940582  0.70470326    -0.38300
N841        N  0.38374528  0.34498331  0.51215373    -0.37800
N842        N  0.36582859  0.27616710  0.79621552    -0.37800
C843        C  0.59917318  0.28762114  0.85101863    -0.04400
C844        C  0.57962308  0.29968440  0.80479739    -0.01600
C845        C  0.60814295  0.31963886  0.77701741     0.03400
C846        C  0.66010353  0.32484621  0.79121187    -0.04400
C847        C  0.68087310  0.30922390  0.83461709    -0.01600
C848        C  0.65008650  0.29147493  0.86499576     0.03400
C849        C  0.52809268  0.29312898  0.78929991     0.38100
C850        C  0.73114231  0.31308353  0.85584340     0.38100
C851        C  0.67015139  0.27860681  0.91357833     0.36500
C852        C  0.58065048  0.33585780  0.73805489     0.36500
N853        N  0.68664332  0.26926602  0.95259821    -0.38300
N854        N  0.55582135  0.34775140  0.70751690    -0.38300
N855        N  0.76722760  0.31461003  0.88194900    -0.37800
N856        N  0.48645846  0.28763696  0.77925921    -0.37800
C857        C  0.60889717  0.29899515  0.59386288    -0.04400
C858        C  0.64892164  0.28806702  0.62473843    -0.01600
C859        C  0.67272577  0.30403261  0.66422473     0.03400
C860        C  0.66612364  0.33291845  0.66479149    -0.04400
C861        C  0.63369289  0.34420318  0.62436248    -0.01600
C862        C  0.60241776  0.32733237  0.59242295     0.03400
C863        C  0.67167206  0.26208494  0.61031022     0.38100
C864        C  0.62857040  0.37285928  0.61493156     0.38100
C865        C  0.56330947  0.33914094  0.55794970     0.36500
C866        C  0.70081144  0.28954071  0.70511935     0.36500
N867        N  0.53217364  0.34840213  0.53047042    -0.38300
N868        N  0.72035513  0.27656923  0.73811279    -0.38300
N869        N  0.62031358  0.39464373  0.59957773    -0.37800
N870        N  0.69250525  0.24211409  0.59802403    -0.37800
C871        C  0.61860492  0.18800325  0.89577056    -0.04400
C872        C  0.59559013  0.17410483  0.85250616    -0.01600
C873        C  0.62530203  0.16572925  0.80851809     0.03400
C874        C  0.67880419  0.16917117  0.80924994    -0.04400
C875        C  0.70081386  0.18345481  0.85300707    -0.01600
C876        C  0.67153865  0.19084708  0.89750250     0.03400
C877        C  0.54131343  0.16837776  0.85268047     0.38100
C878        C  0.75117678  0.19498238  0.85047397     0.38100
C879        C  0.69621819  0.20084753  0.94600257     0.36500
C880        C  0.59942907  0.15647064  0.76096069     0.36500
N881        N  0.71548788  0.20848098  0.98488451    -0.38300
N882        N  0.57792528  0.14910707  0.72322626    -0.38300
N883        N  0.78861196  0.20735470  0.85245249    -0.37800
N884        N  0.49813713  0.16360736  0.85398190    -0.37800
C885        C  0.67630327  0.16569857  0.67466297    -0.04400
C886        C  0.65983665  0.15287613  0.62521346    -0.01600
C887        C  0.62706031  0.16661963  0.58965430     0.03400
C888        C  0.61206554  0.19322156  0.60021367    -0.04400
C889        C  0.62086553  0.20458620  0.65066871    -0.01600
C890        C  0.65696634  0.19271195  0.68489517     0.03400
C891        C  0.67717242  0.12673307  0.60531273     0.38100
C892        C  0.59016708  0.22738031  0.67025166     0.38100
C893        C  0.67085381  0.20954853  0.73011069     0.36500
C894        C  0.60544880  0.15328383  0.54278656     0.36500
N895        N  0.67624522  0.22469650  0.76530784    -0.38300
N896        N  0.58547325  0.14408387  0.50571957    -0.38300
N897        N  0.56683711  0.24497253  0.68969495    -0.37800
N898        N  0.69126666  0.10715811  0.58364913    -0.37800
C899        C  0.36777992  0.20156040  0.89954513    -0.04400
C900        C  0.32800429  0.18451122  0.91542804    -0.01600
C901        C  0.28933912  0.17894438  0.87889676     0.03400
C902        C  0.29862358  0.18192072  0.82329594    -0.04400
C903        C  0.33261208  0.20311103  0.80900296    -0.01600
C904        C  0.37087090  0.21050543  0.84564044     0.03400
C905        C  0.32329820  0.17528618  0.97060107     0.38100
C906        C  0.32583143  0.21905178  0.76063388     0.38100
C907        C  0.41816807  0.22155562  0.82521988     0.36500
C908        C  0.24128162  0.18890553  0.89839935     0.36500
N909        N  0.45738270  0.22881248  0.80918794    -0.38300
N910        N  0.20748598  0.20020648  0.91840889    -0.38300
N911        N  0.31980502  0.23210262  0.72231600    -0.37800
N912        N  0.31960936  0.16720131  0.01414753    -0.37800
C913        C  0.32411111  0.17082348  0.69345945    -0.04400
C914        C  0.37624210  0.17073204  0.70802215    -0.01600
C915        C  0.41288035  0.18379285  0.67544659     0.03400
C916        C  0.39820048  0.19743470  0.62789736    -0.04400
C917        C  0.34632556  0.19760996  0.61328833    -0.01600
C918        C  0.31081291  0.18237486  0.64298720     0.03400
C919        C  0.39222445  0.16001004  0.75925624     0.38100
C920        C  0.32738245  0.21471031  0.56964038     0.38100
C921        C  0.26258513  0.17758202  0.61726302     0.36500
C922        C  0.46483784  0.18541584  0.69421202     0.36500
N923        N  0.22734589  0.17342966  0.59094116    -0.38300
N924        N  0.50563077  0.18812198  0.71052246    -0.38300
N925        N  0.30988797  0.22772185  0.53539729    -0.37800
N926        N  0.40492844  0.15410422  0.80208874    -0.37800
O927        O  0.46692934  0.72567748  0.13514030    -0.79200
O928        O  0.53983042  0.70578858  0.38927815    -0.79300
O929        O  0.39507686  0.73918231  0.45214484    -0.79300
O930        O  0.60306399  0.73042614  0.04749269    -0.79200
O931        O  0.44594444  0.71731463  0.39577180    -0.79300
O932        O  0.53416802  0.70511392  0.06140973    -0.79300
O933        O  0.59871680  0.71439160  0.44625496    -0.79200
O934        O  0.42483639  0.71694057  0.06107906    -0.79300
C935        C  0.43026643  0.71365330  0.11229926     1.10400
C936        C  0.58067841  0.69940333  0.41099384     1.10300
C937        C  0.40274927  0.72271830  0.41402794     1.10500
C938        C  0.58143963  0.70892304  0.06583725     1.10300
O939        O  0.54949429  0.75821068  0.10844178    -0.79200
O940        O  0.46305250  0.77426894  0.38941958    -0.79300
O941        O  0.37874596  0.76567213  0.05086759    -0.79300
O942        O  0.63796771  0.76281669  0.44846634    -0.79200
O943        O  0.56932101  0.76331097  0.39479315    -0.79300
O944        O  0.45504063  0.77432202  0.08428517    -0.79300
O945        O  0.56345368  0.78675493  0.04367976    -0.79200
O946        O  0.45100890  0.78845527  0.47159066    -0.79300
Co947      Co  0.49382336  0.73837972  0.06868187     1.51500
Co948      Co  0.50465006  0.74030027  0.39800628     1.51700
Co949      Co  0.44310618  0.75225759  0.50712960     1.51600
Co950      Co  0.57902818  0.75767362  0.99226186     1.51500
O951        O  0.50712597  0.74479162  0.99147186    -1.41200
C952        C  0.56822203  0.78054493  0.09218009     1.10400
C953        C  0.44606643  0.79183405  0.42198191     1.10500
C954        C  0.40662413  0.77845283  0.08330556     1.10400
C955        C  0.61416333  0.77201881  0.40735326     1.10400
O956        O  0.56818831  0.98822800  0.06114694    -0.79200
O957        O  0.54984960  0.52582609  0.36730550    -0.79300
O958        O  0.53631806  0.94752969  0.44783580    -0.79300
O959        O  0.55969739  0.54711015  0.06066867    -0.79200
O960        O  0.57898283  0.98505967  0.43970778    -0.79300
O961        O  0.53815043  0.52361885  0.13486223    -0.79300
O962        O  0.56592028  0.54658966  0.44497677    -0.79200
O963        O  0.52275593  0.95134622  0.05898717    -0.79300
C964        C  0.56412789  0.96316378  0.07225841     1.10400
C965        C  0.57818565  0.54159128  0.39534885     1.10300
C966        C  0.57477476  0.96005747  0.42792660     1.10500
C967        C  0.56770599  0.54035806  0.11040587     1.10300
O968        O  0.43917002  0.52705901  0.10025298    -0.79200
O969        O  0.47879701  0.97643213  0.38384027    -0.79300
O970        O  0.41485807  0.97153003  0.05185097    -0.79300
O971        O  0.45259218  0.56076851  0.44960805    -0.79200
O972        O  0.44730256  0.52508732  0.40040778    -0.79300
O973        O  0.46515289  0.97953119  0.11850624    -0.79300
O974        O  0.44893445  0.56388936  0.05443881    -0.79200
O975        O  0.42893700  0.96450396  0.45092861    -0.79300
Co976      Co  0.50342460  0.50964370  0.07415310     1.51500
Co977      Co  0.51202707  0.50839000  0.42499281     1.51700
Co978      Co  0.47065678  0.96335248  0.00177138     1.51600
Co979      Co  0.50285635  0.54996004  0.00186650     1.51500
O980        O  0.48005208  0.50625195  0.99913779    -1.42700
C981        C  0.42580481  0.55117159  0.09126903     1.10400
C982        C  0.43699131  0.96562075  0.40156728     1.10500
C983        C  0.42276863  0.97011994  0.10104599     1.10400
C984        C  0.42962290  0.54787687  0.41306575     1.10400
O985        O  0.92630212  0.79428608  0.02550942    -0.79200
O986        O  0.05694512  0.79522903  0.44055106    -0.79300
O987        O  0.04097851  0.77129666  0.12336475    -0.79300
O988        O  0.94356399  0.78865645  0.40976272    -0.79200
O989        O  0.07745420  0.79233246  0.05507167    -0.79300
O990        O  0.86772361  0.77517370  0.43630666    -0.79300
O991        O  0.03920600  0.76893985  0.37492284    -0.79200
O992        O  0.93547865  0.77337846  0.10330922    -0.79300
C993        C  0.91951055  0.79382672  0.07615852     1.10400
C994        C  0.06066875  0.79049251  0.39166229     1.10300
C995        C  0.06952431  0.79050401  0.10464634     1.10500
C996        C  0.89455009  0.79150470  0.40755832     1.10300
O997        O  0.91725969  0.72463511  0.42976146    -0.79200
O998        O  0.10638670  0.73415390  0.06473928    -0.79300
O999        O  0.94379628  0.71443661  0.06668593    -0.79300
O1000       O  0.01972774  0.71607609  0.42061632    -0.79200
O1001       O  0.09309200  0.73529215  0.44019994    -0.79300
O1002       O  0.88270154  0.73906428  0.03386984    -0.79300
O1003       O  0.95014385  0.73940277  0.35456532    -0.79200
O1004       O  0.03651363  0.71331796  0.08865577    -0.79300
Co1005     Co  0.93046638  0.75978019  0.98170620     1.51500
Co1006     Co  0.07530654  0.76660030  0.49349277     1.51700
Co1007     Co  0.98971008  0.74417819  0.08905161     1.51600
Co1008     Co  0.98214710  0.75144857  0.42025140     1.51500
O1009       O  0.00438365  0.75414707  0.00922029    -1.41200
C1010       C  0.92203989  0.72189233  0.37796142     1.10400
C1011       C  0.08365817  0.71535088  0.09175745     1.10500
C1012       C  0.89730017  0.71727925  0.05812864     1.10400
C1013       C  0.06790630  0.71573771  0.41840538     1.10400
C1014       C  0.23913137  0.62939996  0.31725159     0.46400
H1015       H  0.23526236  0.62739775  0.36010440    -0.02700
C1016       C  0.24599936  0.63074553  0.21477110     0.46400
H1017       H  0.24753683  0.63024857  0.17058084    -0.02700
C1018       C  0.27175044  0.65405043  0.29650771    -0.16400
C1019       C  0.26561877  0.60286474  0.29388045    -0.16100
C1020       C  0.18587925  0.63523345  0.29245502    -0.16500
C1021       C  0.27869074  0.65296879  0.24044805    -0.16500
C1022       C  0.27064528  0.60413774  0.23780896    -0.16000
C1023       C  0.19055496  0.63743324  0.23672631    -0.16400
C1024       C  0.74766697  0.62384222  0.18933256     0.46400
H1025       H  0.74951098  0.61879570  0.14651934    -0.02700
C1026       C  0.75653957  0.63176556  0.29010962     0.46400
H1027       H  0.76011025  0.63574810  0.33285109    -0.02700
C1028       C  0.71053501  0.64613861  0.20839167    -0.16400
C1029       C  0.73125329  0.59820865  0.22458961    -0.16100
C1030       C  0.80006820  0.63666276  0.20343644    -0.16500
C1031       C  0.71428003  0.64971855  0.26391265    -0.16500
C1032       C  0.73736056  0.60228901  0.27932721    -0.16000
C1033       C  0.80735207  0.63873372  0.25861229    -0.16400
C1034       C  0.26441197  0.86887160  0.20580962     0.46400
H1035       H  0.26220283  0.87058625  0.16229560    -0.02700
C1036       C  0.26706610  0.87373412  0.30787694     0.46400
H1037       H  0.26517089  0.87895313  0.35052698    -0.02700
C1038       C  0.30156171  0.84768636  0.23239627    -0.16400
C1039       C  0.28441427  0.89745184  0.22339757    -0.16100
C1040       C  0.21221756  0.86083402  0.23134084    -0.16500
C1041       C  0.30691318  0.85252193  0.28877069    -0.16500
C1042       C  0.28678274  0.89990797  0.27835205    -0.16000
C1043       C  0.21394698  0.86233920  0.28639259    -0.16400
C1044       C  0.74138512  0.87796371  0.28896180     0.46400
H1045       H  0.74993082  0.87915860  0.32972170    -0.02700
C1046       C  0.72843745  0.87775204  0.18738028     0.46400
H1047       H  0.72205408  0.87962024  0.14454171    -0.02700
C1048       C  0.70127395  0.85654802  0.27216721    -0.16400
C1049       C  0.71847117  0.90601790  0.27018849    -0.16100
C1050       C  0.79041486  0.86850897  0.25768566    -0.16500
C1051       C  0.69515052  0.85582996  0.21619090    -0.16500
C1052       C  0.71182565  0.90543159  0.21420900    -0.16000
C1053       C  0.78453224  0.86916852  0.20176846    -0.16400
C1054       C  0.17256603  0.84270293  0.20139149    -0.04400
C1055       C  0.17847888  0.81367989  0.19582441    -0.01600
C1056       C  0.14811149  0.79850075  0.15969691     0.03400
C1057       C  0.10167092  0.80885242  0.14040205    -0.04400
C1058       C  0.09450001  0.83766663  0.14491087    -0.01600
C1059       C  0.13072051  0.85447499  0.17303818     0.03400
C1060       C  0.21974820  0.79846599  0.21919068     0.38100
C1061       C  0.05270976  0.85031600  0.11610504     0.38100
C1062       C  0.12740215  0.88400210  0.16882541     0.36500
C1063       C  0.17094627  0.77468234  0.13367163     0.36500
N1064       N  0.12556195  0.90759903  0.16429302    -0.38300
N1065       N  0.19184932  0.75655112  0.11313125    -0.38300
N1066       N  0.01938394  0.86026044  0.09265436    -0.37800
N1067       N  0.25076456  0.78304956  0.23250832    -0.37800
C1068       C  0.09737798  0.80786770  0.35960790    -0.04400
C1069       C  0.08524111  0.83482959  0.34218068    -0.01600
C1070       C  0.12397495  0.85316729  0.32323989     0.03400
C1071       C  0.17572132  0.84480048  0.31903532    -0.04400
C1072       C  0.18696316  0.81775404  0.33758986    -0.01600
C1073       C  0.14896231  0.80013928  0.35893294     0.03400
C1074       C  0.03283385  0.84400371  0.34357648     0.38100
C1075       C  0.23685616  0.80595581  0.33602871     0.38100
C1076       C  0.16467558  0.77422724  0.38318949     0.36500
C1077       C  0.11088683  0.88124376  0.30994893     0.36500
N1078       N  0.18127621  0.75445930  0.40216656    -0.38300
N1079       N  0.10081690  0.90382828  0.30024597    -0.38300
N1080       N  0.27219296  0.79194576  0.33942074    -0.37800
N1081       N  0.99127153  0.85200101  0.34334558    -0.37800
C1082       C  0.14319336  0.64847318  0.32875113    -0.04400
C1083       C  0.15159383  0.65271274  0.38416942    -0.01600
C1084       C  0.13382415  0.67691301  0.40999914     0.03400
C1085       C  0.09415804  0.69256717  0.38747683    -0.04400
C1086       C  0.07588865  0.68376392  0.33679049    -0.01600
C1087       C  0.09729633  0.66053552  0.31003953     0.03400
C1088       C  0.14858838  0.62827183  0.41660963     0.38100
C1089       C  0.04424712  0.70203809  0.30617265     0.38100
C1090       C  0.06685786  0.64656559  0.27060007     0.36500
C1091       C  0.15680896  0.68564801  0.45947839     0.36500
N1092       N  0.04049228  0.63518201  0.24103906    -0.38300
N1093       N  0.17621509  0.69372959  0.49784520    -0.38300
N1094       N  0.02275181  0.71773599  0.27990409    -0.37800
N1095       N  0.14166994  0.60896994  0.44269070    -0.37800
C1096       C  0.11031749  0.69552597  0.12985385    -0.04400
C1097       C  0.10200980  0.66679707  0.12652618    -0.01600
C1098       C  0.12837328  0.64804809  0.16055403     0.03400
C1099       C  0.15884937  0.65756953  0.20325714    -0.04400
C1100       C  0.15799379  0.68635404  0.21344276    -0.01600
C1101       C  0.13211880  0.70476906  0.17837982     0.03400
C1102       C  0.06070249  0.65656667  0.09400701     0.38100
C1103       C  0.17675379  0.69723981  0.26358337     0.38100
C1104       C  0.11712373  0.73125558  0.19949017     0.36500
C1105       C  0.11834551  0.61897648  0.15603471     0.36500
N1106       N  0.10410628  0.75133849  0.22014034    -0.38300
N1107       N  0.10772692  0.59602425  0.15326927    -0.38300
N1108       N  0.18756358  0.70681213  0.30443576    -0.37800
N1109       N  0.02730929  0.64802350  0.06902576    -0.37800
C1110       C  0.86252240  0.69578777  0.08324637    -0.04400
C1111       C  0.82645808  0.70398796  0.12140689    -0.01600
C1112       C  0.81072421  0.68571919  0.16267806     0.03400
C1113       C  0.82155104  0.65704023  0.16098573    -0.04400
C1114       C  0.84962401  0.64787118  0.11548320    -0.01600
C1115       C  0.87324793  0.66715790  0.07964981     0.03400
C1116       C  0.80915061  0.73220045  0.12060216     0.38100
C1117       C  0.85783299  0.61877760  0.10788285     0.38100
C1118       C  0.90797020  0.65743227  0.03836863     0.36500
C1119       C  0.79398807  0.69841600  0.21102343     0.36500
N1120       N  0.93495556  0.64968311  0.00467156    -0.38300
N1121       N  0.78633792  0.71120757  0.24891093    -0.38300
N1122       N  0.86432954  0.59555210  0.10131788    -0.37800
N1123       N  0.79579885  0.75473931  0.11745689    -0.37800
C1124       C  0.85214271  0.65339082  0.28769843    -0.04400
C1125       C  0.88601200  0.67196350  0.26244063    -0.01600
C1126       C  0.90280871  0.69570757  0.28981145     0.03400
C1127       C  0.89994827  0.69740950  0.34696200    -0.04400
C1128       C  0.87812853  0.67428519  0.37360387    -0.01600
C1129       C  0.85703023  0.65204116  0.34417503     0.03400
C1130       C  0.91684131  0.66280632  0.21762070     0.38100
C1131       C  0.86579127  0.67554225  0.42989397     0.38100
C1132       C  0.84468044  0.62670891  0.37184745     0.36500
C1133       C  0.91693411  0.71905303  0.25692068     0.36500
N1134       N  0.83527952  0.60632080  0.39357538    -0.38300
N1135       N  0.92711350  0.73755304  0.22968777    -0.38300
N1136       N  0.82818176  0.68884462  0.97314461    -0.37800
N1137       N  0.94355374  0.65553492  0.18328068    -0.37800
C1138       C  0.87062133  0.81207957  0.36886405    -0.04400
C1139       C  0.84427945  0.80238294  0.32377244    -0.01600
C1140       C  0.82597617  0.82034805  0.28321976     0.03400
C1141       C  0.82670104  0.84930327  0.28974788    -0.04400
C1142       C  0.85442310  0.85920955  0.33480655    -0.01600
C1143       C  0.87697300  0.84081814  0.37324463     0.03400
C1144       C  0.83476071  0.77338199  0.31967304     0.38100
C1145       C  0.85940457  0.88850076  0.34207343     0.38100
C1146       C  0.90254987  0.85156665  0.42006363     0.36500
C1147       C  0.81070717  0.80807021  0.23346652     0.36500
N1148       N  0.89989444  0.85633656  0.97250452    -0.38300
N1149       N  0.80121799  0.79674198  0.19411483    -0.38300
N1150       N  0.86385999  0.91191617  0.34759585    -0.37800
N1151       N  0.82625945  0.75024499  0.31775007    -0.37800
C1152       C  0.88805501  0.81626078  0.10349195    -0.04400
C1153       C  0.83895725  0.82287544  0.08422627    -0.01600
C1154       C  0.80624167  0.84163848  0.11201357     0.03400
C1155       C  0.82211729  0.85522811  0.16051355    -0.04400
C1156       C  0.87483238  0.85192741  0.17306387    -0.01600
C1157       C  0.90501598  0.83061591  0.14947818     0.03400
C1158       C  0.81879074  0.80790761  0.03865132     0.38100
C1159       C  0.89951444  0.87148303  0.20788691     0.38100
C1160       C  0.95137302  0.82212513  0.17621388     0.36500
C1161       C  0.75694201  0.84579783  0.08763458     0.36500
N1162       N  0.98706706  0.81510504  0.19979050    -0.38300
N1163       N  0.71939879  0.84797893  0.06371778    -0.38300
N1164       N  0.92004890  0.88734038  0.23456400    -0.37800
N1165       N  0.80020381  0.79629593  0.00341391    -0.37800
C1166       C  0.62597344  0.55547634  0.37284101    -0.04400
C1167       C  0.66652413  0.54130752  0.34711478    -0.01600
C1168       C  0.70529348  0.55604719  0.31851792     0.03400
C1169       C  0.70865176  0.58495031  0.32242174    -0.04400
C1170       C  0.67982714  0.59670014  0.36546040    -0.01600
C1171       C  0.63574756  0.58315793  0.38566720     0.03400
C1172       C  0.67779676  0.51381669  0.36455078     0.38100
C1173       C  0.70305917  0.61622419  0.40094839     0.38100
C1174       C  0.59709177  0.59847633  0.41468585     0.36500
C1175       C  0.74696318  0.54141434  0.29304867     0.36500
N1176       N  0.56278576  0.60890419  0.43587539    -0.38300
N1177       N  0.78108820  0.52976057  0.27406995    -0.38300
N1178       N  0.72267526  0.63026074  0.43195806    -0.37800
N1179       N  0.69976686  0.98926296  0.37471789    -0.37800
C1180       C  0.68944710  0.57939582  0.20204520    -0.04400
C1181       C  0.63635430  0.58517621  0.20924311    -0.01600
C1182       C  0.59960027  0.57542357  0.17335606     0.03400
C1183       C  0.61083315  0.55350980  0.13970242    -0.04400
C1184       C  0.66255296  0.54554080  0.13395721    -0.01600
C1185       C  0.70173662  0.55890477  0.16376164     0.03400
C1186       C  0.61422174  0.59470141  0.25827359     0.38100
C1187       C  0.67645403  0.52691313  0.09160117     0.38100
C1188       C  0.75462088  0.55149813  0.15470908     0.36500
C1189       C  0.55106687  0.58975420  0.16819096     0.36500
N1190       N  0.79666457  0.54510987  0.14739498    -0.38300
N1191       N  0.51351378  0.60201488  0.16285409    -0.38300
N1192       N  0.68541550  0.01688360  0.04717099    -0.37800
N1193       N  0.58756853  0.60028448  0.29372399    -0.37800
C1194       C  0.31085335  0.58897133  0.20119439    -0.04400
C1195       C  0.29768106  0.57981920  0.14833988    -0.01600
C1196       C  0.33506881  0.56903799  0.11148534     0.03400
C1197       C  0.38612572  0.56478601  0.12736005    -0.04400
C1198       C  0.39796936  0.57049668  0.18126412    -0.01600
C1199       C  0.36345307  0.58510635  0.21513181     0.03400
C1200       C  0.24507113  0.57978153  0.13155119     0.38100
C1201       C  0.44378667  0.55857680  0.20445479     0.38100
C1202       C  0.38535388  0.59555639  0.26372068     0.36500
C1203       C  0.31981035  0.55932846  0.05898755     0.36500
N1204       N  0.40801898  0.60133686  0.30167115    -0.38300
N1205       N  0.30780882  0.55109812  0.01739732    -0.38300
N1206       N  0.47897716  0.54850622  0.22444866    -0.37800
N1207       N  0.20380599  0.57880296  0.11557874    -0.37800
C1208       C  0.38145926  0.55898570  0.38558324    -0.04400
C1209       C  0.35540851  0.58227720  0.40624214    -0.01600
C1210       C  0.30822365  0.59062136  0.38429947     0.03400
C1211       C  0.29468605  0.58290952  0.33171057    -0.04400
C1212       C  0.31327333  0.55700095  0.31587532    -0.01600
C1213       C  0.35764816  0.54549302  0.34090655     0.03400
C1214       C  0.37297799  0.59638626  0.45377375     0.38100
C1215       C  0.28378280  0.54158955  0.27756273     0.38100
C1216       C  0.38071532  0.52162530  0.31632850     0.36500
C1217       C  0.26764405  0.59051604  0.42349440     0.36500
N1218       N  0.39928124  0.50304946  0.29493550    -0.38300
N1219       N  0.23765410  0.58831732  0.45745057    -0.38300
N1220       N  0.25811467  0.52967358  0.24811873    -0.37800
N1221       N  0.38664784  0.60773447  0.49178565    -0.37800
C1222       C  0.60300416  0.94918990  0.10850655    -0.04400
C1223       C  0.58711405  0.93720617  0.15768221    -0.01600
C1224       C  0.62194618  0.92302445  0.19124544     0.03400
C1225       C  0.67515961  0.92303993  0.18061328    -0.04400
C1226       C  0.69172731  0.93596912  0.13229294    -0.01600
C1227       C  0.65588539  0.94787872  0.09565769     0.03400
C1228       C  0.53486123  0.93986698  0.17557222     0.38100
C1229       C  0.74569084  0.93601709  0.11917948     0.38100
C1230       C  0.67262173  0.95519920  0.04202104     0.36500
C1231       C  0.60257508  0.90830629  0.23722639     0.36500
N1232       N  0.68634209  0.96018804  0.99883164    -0.38300
N1233       N  0.58852048  0.89795527  0.27628107    -0.38300
N1234       N  0.78885172  0.93608089  0.10893933    -0.37800
N1235       N  0.49397884  0.94210547  0.19260492    -0.37800
C1236       C  0.69051367  0.92513393  0.31307452    -0.04400
C1237       C  0.69014786  0.91910648  0.36953499    -0.01600
C1238       C  0.64934592  0.92759004  0.40422792     0.03400
C1239       C  0.61208987  0.94661722  0.38741437    -0.04400
C1240       C  0.61666252  0.95586035  0.33316242    -0.01600
C1241       C  0.65885475  0.94784510  0.29957567     0.03400
C1242       C  0.73772505  0.91344036  0.39658638     0.38100
C1243       C  0.57624934  0.97176487  0.30888734     0.38100
C1244       C  0.67494545  0.96655569  0.25756563     0.36500
C1245       C  0.64717817  0.91697215  0.45835843     0.36500
N1246       N  0.68789200  0.98208516  0.22502154    -0.38300
N1247       N  0.64612806  0.90780147  0.50114893    -0.38300
N1248       N  0.54401175  0.98346477  0.28685809    -0.37800
N1249       N  0.77473015  0.91012409  0.42091689    -0.37800
C1250       C  0.39802752  0.95130398  0.36728889    -0.04400
C1251       C  0.41428079  0.93160059  0.33082458    -0.01600
C1252       C  0.37924023  0.91800799  0.29750545     0.03400
C1253       C  0.32527984  0.91886628  0.30729072    -0.04400
C1254       C  0.30900533  0.93629044  0.34979328    -0.01600
C1255       C  0.34457902  0.95328541  0.37760821     0.03400
C1256       C  0.46681985  0.92225459  0.33331012     0.38100
C1257       C  0.25564384  0.93676377  0.36543523     0.38100
C1258       C  0.32633016  0.97192698  0.41877655     0.36500
C1259       C  0.40268508  0.90591579  0.25152479     0.36500
N1260       N  0.31240944  0.98669722  0.45211842    -0.38300
N1261       N  0.42937059  0.89948559  0.21674365    -0.38300
N1262       N  0.21320623  0.93705869  0.37865638    -0.37800
N1263       N  0.50798418  0.91417113  0.33832552    -0.37800
C1264       C  0.38568556  0.95268165  0.13219562    -0.04400
C1265       C  0.38070606  0.92525924  0.11621301    -0.01600
C1266       C  0.34729420  0.90727674  0.14382345     0.03400
C1267       C  0.31290152  0.91693207  0.18450706    -0.04400
C1268       C  0.31114133  0.94577084  0.19209706    -0.01600
C1269       C  0.34853249  0.96321505  0.16795545     0.03400
C1270       C  0.41382276  0.91465879  0.07348643     0.38100
C1271       C  0.27012276  0.95755646  0.22388629     0.38100
C1272       C  0.34664714  0.99218794  0.17741823     0.36500
C1273       C  0.36282131  0.87923922  0.13936450     0.36500
N1274       N  0.34436971  0.51574382  0.18133699    -0.38300
N1275       N  0.38751877  0.85985950  0.13352129    -0.38300
N1276       N  0.23691317  0.96679496  0.24885952    -0.37800
N1277       N  0.43984694  0.90615207  0.03965443    -0.37800
C1278       C  0.41464278  0.81474681  0.40096265    -0.04400
C1279       C  0.36200943  0.81601087  0.41172601    -0.01600
C1280       C  0.33148357  0.83485551  0.38368403     0.03400
C1281       C  0.34679463  0.84312093  0.33053570    -0.04400
C1282       C  0.40104796  0.84280148  0.32144244    -0.01600
C1283       C  0.43411657  0.83202641  0.36106819     0.03400
C1284       C  0.33679262  0.79657244  0.44707699     0.38100
C1285       C  0.42420971  0.84654405  0.26952509     0.38100
C1286       C  0.48748660  0.83931783  0.36264758     0.36500
C1287       C  0.28447127  0.84305131  0.41043021     0.36500
N1288       N  0.52936137  0.84626872  0.36740726    -0.38300
N1289       N  0.24768607  0.84915614  0.43358632    -0.38300
N1290       N  0.44627724  0.84639404  0.22916086    -0.37800
N1291       N  0.31286966  0.78180532  0.47344009    -0.37800
C1292       C  0.32150204  0.82458118  0.19637158    -0.04400
C1293       C  0.35987136  0.80602749  0.21295483    -0.01600
C1294       C  0.39311030  0.79458843  0.17517271     0.03400
C1295       C  0.38268930  0.79697941  0.12061330    -0.04400
C1296       C  0.34050261  0.81146424  0.10318981    -0.01600
C1297       C  0.30663323  0.82240266  0.14047176     0.03400
C1298       C  0.36191212  0.79463682  0.26595771     0.38100
C1299       C  0.33842039  0.82085086  0.04779960     0.38100
C1300       C  0.25815936  0.83001253  0.11674157     0.36500
C1301       C  0.43977416  0.78159923  0.19200150     0.36500
N1302       N  0.22205777  0.83616960  0.09285522    -0.38300
N1303       N  0.47845361  0.77172895  0.20249572    -0.38300
N1304       N  0.33693269  0.83057260  0.00549410    -0.37800
N1305       N  0.36730234  0.78454155  0.30749457    -0.37800
C1306       C  0.63460741  0.79492968  0.37557029    -0.04400
C1307       C  0.61115045  0.80299273  0.32713667    -0.01600
C1308       C  0.62612348  0.82715921  0.30164023     0.03400
C1309       C  0.67422703  0.83880722  0.31361320    -0.04400
C1310       C  0.69576878  0.83145917  0.36488454    -0.01600
C1311       C  0.67193639  0.81182805  0.39741608     0.03400
C1312       C  0.56948153  0.78753513  0.30449440     0.38100
C1313       C  0.74053026  0.84303016  0.38910637     0.38100
C1314       C  0.68303664  0.81060168  0.45466883     0.36500
C1315       C  0.58934287  0.83973456  0.26608405     0.36500
N1316       N  0.69034513  0.80960987  0.50036772    -0.38300
N1317       N  0.55689588  0.84797848  0.23909981    -0.38300
N1318       N  0.77381291  0.85113461  0.41480962    -0.37800
N1319       N  0.53547725  0.77464926  0.28987336    -0.37800
C1320       C  0.59815534  0.79869970  0.12751226    -0.04400
C1321       C  0.64135925  0.78909816  0.15519949    -0.01600
C1322       C  0.66815157  0.80666675  0.18974130     0.03400
C1323       C  0.66344178  0.83562544  0.18368583    -0.04400
C1324       C  0.62627975  0.84494171  0.14596953    -0.01600
C1325       C  0.58936868  0.82694029  0.12554924     0.03400
C1326       C  0.66565180  0.76384654  0.13899434     0.38100
C1327       C  0.62888592  0.87095468  0.11946757     0.38100
C1328       C  0.54394097  0.83761286  0.09925410     0.36500
C1329       C  0.69696232  0.79384607  0.23229014     0.36500
N1330       N  0.50750310  0.84590361  0.07865437    -0.38300
N1331       N  0.71659457  0.78237856  0.26736703    -0.38300
N1332       N  0.62988722  0.88951277  0.09069768    -0.37800
N1333       N  0.68748001  0.74477383  0.12362530    -0.37800
C1334       C  0.61247844  0.67771795  0.38776342    -0.04400
C1335       C  0.59286935  0.66336849  0.34393353    -0.01600
C1336       C  0.62362143  0.65862460  0.29875819     0.03400
C1337       C  0.67706182  0.66305737  0.30168702    -0.04400
C1338       C  0.69649468  0.67584405  0.34826887    -0.01600
C1339       C  0.66539261  0.68082262  0.39266955     0.03400
C1340       C  0.54077122  0.65351907  0.34574690     0.38100
C1341       C  0.74627571  0.68808317  0.34961139     0.38100
C1342       C  0.68828929  0.69071382  0.44227759     0.36500
C1343       C  0.59762950  0.65271521  0.24915400     0.36500
N1344       N  0.70703671  0.69860334  0.48125170    -0.38300
N1345       N  0.57451364  0.64816073  0.21074841    -0.38300
N1346       N  0.78319363  0.70039550  0.35603132    -0.37800
N1347       N  0.49991174  0.64471403  0.34800529    -0.37800
C1348       C  0.67802836  0.66219497  0.16916075    -0.04400
C1349       C  0.66078003  0.65073889  0.11902264    -0.01600
C1350       C  0.63002069  0.66639971  0.08430694     0.03400
C1351       C  0.61004999  0.69121153  0.10166556    -0.04400
C1352       C  0.61998218  0.70030009  0.15339762    -0.01600
C1353       C  0.66016610  0.68900940  0.18217590     0.03400
C1354       C  0.67155806  0.62322893  0.10077234     0.38100
C1355       C  0.58716801  0.71998726  0.18002245     0.38100
C1356       C  0.67784315  0.70571341  0.22616634     0.36500
C1357       C  0.61578709  0.65635727  0.03193278     0.36500
N1358       N  0.68601291  0.72111603  0.26030734    -0.38300
N1359       N  0.60391790  0.64851820  0.99020783    -0.38300
N1360       N  0.56297723  0.73497765  0.20550197    -0.37800
N1361       N  0.67930036  0.60205068  0.08154523    -0.37800
C1362       C  0.36060670  0.70917241  0.38896313    -0.04400
C1363       C  0.33630377  0.68796313  0.41593931    -0.01600
C1364       C  0.29906651  0.67275847  0.38950031     0.03400
C1365       C  0.28980504  0.67699060  0.33329490    -0.04400
C1366       C  0.30843976  0.70197953  0.31100692    -0.01600
C1367       C  0.34916870  0.71503353  0.33550317     0.03400
C1368       C  0.35527751  0.67883078  0.46792723     0.38100
C1369       C  0.28823200  0.71477863  0.26309019     0.38100
C1370       C  0.38706937  0.72819525  0.30187129     0.36500
C1371       C  0.26781237  0.65685019  0.42534101     0.36500
N1372       N  0.41938775  0.73721695  0.27552549    -0.38300
N1373       N  0.24604669  0.64616214  0.46000355    -0.38300
N1374       N  0.27304780  0.72586014  0.22523145    -0.37800
N1375       N  0.37093010  0.67057851  0.50821051    -0.37800
C1376       C  0.31890705  0.66726618  0.20598789    -0.04400
C1377       C  0.37020030  0.66970860  0.22350111    -0.01600
C1378       C  0.40692353  0.68387804  0.19239815     0.03400
C1379       C  0.39323260  0.69665999  0.14356713    -0.04400
C1380       C  0.34219090  0.69472367  0.12624611    -0.01600
C1381       C  0.30646117  0.67880775  0.15497547     0.03400
C1382       C  0.38537185  0.66008254  0.27594955     0.38100
C1383       C  0.32412513  0.71074428  0.08072580     0.38100
C1384       C  0.25695026  0.67574330  0.13030555     0.36500
C1385       C  0.45802138  0.68657685  0.21358581     0.36500
N1386       N  0.22017530  0.67370951  0.10520435    -0.38300
N1387       N  0.49746162  0.68893611  0.23352587    -0.38300
N1388       N  0.30765023  0.72288997  0.04477743    -0.37800
N1389       N  0.39782399  0.65482854  0.31923801    -0.37800
O1390       O  0.47434058  0.72542526  0.62394931    -0.79200
O1391       O  0.54030097  0.70099301  0.93319286    -0.79300
O1392       O  0.38886791  0.73624823  0.96329524    -0.79300
O1393       O  0.60853225  0.72946855  0.53821025    -0.79200
O1394       O  0.44264744  0.70461996  0.94723949    -0.79300
O1395       O  0.54142576  0.70388943  0.55548877    -0.79300
O1396       O  0.60403072  0.72966684  0.93990104    -0.79200
O1397       O  0.42828461  0.71722867  0.55114575    -0.79300
C1398       C  0.43562327  0.71442612  0.60238762     1.10400
C1399       C  0.58636520  0.70657795  0.92596162     1.10300
C1400       C  0.39887814  0.71367929  0.94176625     1.10500
C1401       C  0.58786785  0.70930754  0.56222899     1.10300
O1402       O  0.55534084  0.76025993  0.58873005    -0.79200
O1403       O  0.44350914  0.76209503  0.90038617    -0.79300
O1404       O  0.38711507  0.76714395  0.54324322    -0.79300
O1405       O  0.55983373  0.78387338  0.93723960    -0.79200
O1406       O  0.54292238  0.75252440  0.87712893    -0.79300
O1407       O  0.46394456  0.77332857  0.57503511    -0.79300
O1408       O  0.56577326  0.78373964  0.51483826    -0.79200
O1409       O  0.44087326  0.78656293  0.97486093    -0.79300
Co1410     Co  0.49998901  0.73686536  0.55817774     1.51500
Co1411     Co  0.49234210  0.73027617  0.91827801     1.51700
Co1412     Co  0.43685764  0.75261184  0.01661543     1.51600
Co1413     Co  0.57733502  0.74918036  0.47612070     1.51500
O1414       O  0.50779401  0.73867302  0.47973252    -1.41200
C1415       C  0.57362238  0.78092260  0.56450960     1.10400
C1416       C  0.43184340  0.78413660  0.92556742     1.10500
C1417       C  0.41623365  0.77839666  0.57623081     1.10400
C1418       C  0.56190345  0.77530945  0.88989984     1.10400
O1419       O  0.57376129  0.99040913  0.56937589    -0.79200
O1420       O  0.54307273  0.52903871  0.86721457    -0.79300
O1421       O  0.52416545  0.94952867  0.94654097    -0.79300
O1422       O  0.56585369  0.54665353  0.55942007    -0.79200
O1423       O  0.57000099  0.98604858  0.93578317    -0.79300
O1424       O  0.53934009  0.52727607  0.63618873    -0.79300
O1425       O  0.56256944  0.54740092  0.94651611    -0.79200
O1426       O  0.53387463  0.95179679  0.56410171    -0.79300
C1427       C  0.57112179  0.96552502  0.58262794     1.10400
C1428       C  0.57276062  0.54380191  0.89601928     1.10300
C1429       C  0.56469814  0.96062887  0.92777867     1.10500
C1430       C  0.57087343  0.54259311  0.61070983     1.10300
O1431       O  0.43993484  0.52638094  0.59853053    -0.79200
O1432       O  0.46946799  0.97811716  0.88279284    -0.79300
O1433       O  0.42528729  0.96813228  0.55322942    -0.79300
O1434       O  0.45065828  0.56388571  0.94838395    -0.79200
O1435       O  0.44017298  0.52779581  0.90175146    -0.79300
O1436       O  0.47104215  0.98081247  0.62085067    -0.79300
O1437       O  0.45485544  0.56363709  0.55652379    -0.79200
O1438       O  0.41711690  0.96937394  0.94913124    -0.79300
Co1439     Co  0.50709605  0.51009192  0.57665100     1.51500
Co1440     Co  0.50538937  0.51047636  0.92377835     1.51700
Co1441     Co  0.48255804  0.96120213  0.50390835     1.51600
Co1442     Co  0.50733256  0.54862326  0.50221714     1.51500
O1443       O  0.48645581  0.50442283  0.50073605    -1.42700
C1444       C  0.42889279  0.55098496  0.59147910     1.10400
C1445       C  0.42723396  0.96779992  0.90028328     1.10500
C1446       C  0.43143333  0.96875510  0.60287427     1.10400
C1447       C  0.42484393  0.55112721  0.91398306     1.10400
O1448       O  0.92018744  0.79447161  0.52379088    -0.79200
O1449       O  0.07317271  0.79162940  0.95173725    -0.79300
O1450       O  0.04213590  0.77477674  0.61221601    -0.79300
O1451       O  0.95107473  0.78559277  0.91237410    -0.79200
O1452       O  0.06629341  0.79828552  0.54175114    -0.79300
O1453       O  0.87433275  0.77389775  0.93872539    -0.79300
O1454       O  0.04685942  0.76647663  0.88662092    -0.79200
O1455       O  0.93549772  0.77393423  0.60075569    -0.79300
C1456       C  0.91642980  0.79403738  0.57486163     1.10400
C1457       C  0.06996696  0.78784067  0.90225187     1.10300
C1458       C  0.06463713  0.79575070  0.59169810     1.10500
C1459       C  0.90216823  0.78902591  0.90890853     1.10300
O1460       O  0.92320607  0.72328880  0.93663405    -0.79200
O1461       O  0.10590738  0.74110819  0.55238002    -0.79300
O1462       O  0.94602443  0.71526522  0.56415832    -0.79300
O1463       O  0.02522632  0.71235944  0.93375181    -0.79200
O1464       O  0.09990927  0.73067166  0.94901454    -0.79300
O1465       O  0.88126259  0.73773925  0.53223794    -0.79300
O1466       O  0.96095930  0.73528771  0.86200992    -0.79200
O1467       O  0.04081821  0.71640864  0.57630211    -0.79300
Co1468     Co  0.92454563  0.76042464  0.47778071     1.51500
Co1469     Co  0.08291831  0.76129973  0.00479726     1.51700
Co1470     Co  0.99109900  0.74608583  0.58198016     1.51600
Co1471     Co  0.98895800  0.74837817  0.92878070     1.51500
O1472       O  0.99965706  0.75572046  0.50106941    -1.41200
C1473       C  0.93044232  0.71908829  0.88568079     1.10400
C1474       C  0.08767181  0.72034402  0.57729340     1.10500
C1475       C  0.89892417  0.71695468  0.55823767     1.10400
C1476       C  0.07307861  0.71141097  0.92831365     1.10400
C1477       C  0.23993320  0.63703507  0.80839701     0.46400
H1478       H  0.23382637  0.63851902  0.85112003    -0.02700
C1479       C  0.25187237  0.63517477  0.70665432     0.46400
H1480       H  0.25613595  0.63337357  0.66277474    -0.02700
C1481       C  0.27484279  0.66048902  0.78718630    -0.16400
C1482       C  0.26708577  0.60957304  0.79047913    -0.16100
C1483       C  0.18811449  0.64176716  0.77933908    -0.16500
C1484       C  0.28363335  0.65790757  0.73195507    -0.16500
C1485       C  0.27444704  0.60897427  0.73422474    -0.16000
C1486       C  0.19552238  0.64291596  0.72391674    -0.16400
C1487       C  0.74981243  0.62724655  0.69677839     0.46400
H1488       H  0.75376206  0.62240681  0.65407242    -0.02700
C1489       C  0.75486624  0.63454194  0.79805916     0.46400
H1490       H  0.75658994  0.63843496  0.84098355    -0.02700
C1491       C  0.71346744  0.65027674  0.71463159    -0.16400
C1492       C  0.73042690  0.60171824  0.73048602    -0.16100
C1493       C  0.80237047  0.63873576  0.71340661    -0.16500
C1494       C  0.71580758  0.65383670  0.77043427    -0.16500
C1495       C  0.73410264  0.60555277  0.78552525    -0.16000
C1496       C  0.80732826  0.64010881  0.76899531    -0.16400
C1497       C  0.26866928  0.86664234  0.69981474     0.46400
H1498       H  0.26718544  0.86983788  0.65685506    -0.02700
C1499       C  0.26658509  0.86925600  0.80238049     0.46400
H1500       H  0.26470770  0.87245592  0.84621404    -0.02700
C1501       C  0.30327820  0.84413058  0.72596482    -0.16400
C1502       C  0.29040431  0.89436600  0.72049409    -0.16100
C1503       C  0.21471097  0.85905302  0.72244351    -0.16500
C1504       C  0.30425168  0.84718744  0.78295182    -0.16500
C1505       C  0.29028916  0.89552656  0.77543813    -0.16000
C1506       C  0.21343548  0.85959576  0.77781735    -0.16400
C1507       C  0.72715071  0.86518683  0.79239834     0.46400
H1508       H  0.73109766  0.86109023  0.83535723    -0.02700
C1509       C  0.72378605  0.87500527  0.69125549     0.46400
H1510       H  0.72033434  0.88087307  0.64917148    -0.02700
C1511       C  0.69009863  0.84583142  0.76208218    -0.16400
C1512       C  0.70475353  0.89451698  0.78198897    -0.16100
C1513       C  0.78020461  0.86031189  0.76353519    -0.16500
C1514       C  0.68932724  0.85079916  0.70718784    -0.16500
C1515       C  0.70338022  0.89945132  0.72634564    -0.16000
C1516       C  0.77888623  0.86522930  0.70777045    -0.16400
C1517       C  0.17471448  0.84322426  0.68850647    -0.04400
C1518       C  0.18361743  0.81639409  0.66725319    -0.01600
C1519       C  0.15100271  0.80489827  0.62869919     0.03400
C1520       C  0.10049835  0.81377005  0.62388470    -0.04400
C1521       C  0.09014253  0.84081255  0.64234813    -0.01600
C1522       C  0.12763069  0.85567169  0.67294989     0.03400
C1523       C  0.22458119  0.79838132  0.68222508     0.38100
C1524       C  0.04428579  0.85457871  0.62439004     0.38100
C1525       C  0.11876523  0.88416843  0.68620069     0.36500
C1526       C  0.17238075  0.78578433  0.58966723     0.36500
N1527       N  0.11216533  0.90707967  0.69607858    -0.38300
N1528       N  0.19209474  0.77181011  0.55823715    -0.38300
N1529       N  0.00821263  0.86595517  0.60936538    -0.37800
N1530       N  0.25355687  0.78062472  0.68719580    -0.37800
C1531       C  0.10111298  0.80613537  0.86491414    -0.04400
C1532       C  0.09317647  0.83489442  0.86009797    -0.01600
C1533       C  0.12917865  0.85214437  0.83219472     0.03400
C1534       C  0.17443177  0.84122162  0.80867099    -0.04400
C1535       C  0.18116354  0.81227008  0.81421371    -0.01600
C1536       C  0.14569654  0.79534927  0.84202702     0.03400
C1537       C  0.04815051  0.84686543  0.88461281     0.38100
C1538       C  0.22763161  0.79883751  0.79977607     0.38100
C1539       C  0.15907692  0.76704454  0.85394047     0.36500
C1540       C  0.12038849  0.88139157  0.82961302     0.36500
N1541       N  0.17124120  0.74494250  0.86478709    -0.38300
N1542       N  0.11306610  0.90477796  0.82797124    -0.38300
N1543       N  0.26190343  0.78425558  0.79453342    -0.37800
N1544       N  0.01216993  0.85650618  0.90414339    -0.37800
C1545       C  0.14193411  0.65263982  0.81333826    -0.04400
C1546       C  0.13652952  0.64529689  0.86811266    -0.01600
C1547       C  0.11431188  0.66383111  0.90625205     0.03400
C1548       C  0.09564610  0.69000755  0.88979912    -0.04400
C1549       C  0.09200627  0.69407507  0.83350546    -0.01600
C1550       C  0.10829884  0.67363817  0.79678342     0.03400
C1551       C  0.14884085  0.61741247  0.88368863     0.38100
C1552       C  0.07371207  0.71965999  0.81156407     0.38100
C1553       C  0.07489954  0.66853813  0.75209940     0.36500
C1554       C  0.11870101  0.65701653  0.96226238     0.36500
N1555       N  0.04656379  0.66452190  0.71759083    -0.38300
N1556       N  0.12688875  0.65030625  0.00584958    -0.38300
N1557       N  0.06133202  0.74016601  0.79210948    -0.37800
N1558       N  0.15771954  0.59491373  0.89531861    -0.37800
C1559       C  0.11886517  0.70089605  0.61201670    -0.04400
C1560       C  0.11461910  0.67201270  0.60580851    -0.01600
C1561       C  0.13630211  0.65338789  0.64390528     0.03400
C1562       C  0.16621678  0.66292639  0.68725405    -0.04400
C1563       C  0.16892747  0.69196000  0.69407631    -0.01600
C1564       C  0.14272847  0.71031565  0.65916303     0.03400
C1565       C  0.08679399  0.66125618  0.56045761     0.38100
C1566       C  0.19352775  0.70352762  0.74039498     0.38100
C1567       C  0.13270608  0.73792457  0.67766600     0.36500
C1568       C  0.12212718  0.62479934  0.64216564     0.36500
N1569       N  0.12327941  0.75905354  0.69618557    -0.38300
N1570       N  0.10808368  0.60234479  0.64138027    -0.38300
N1571       N  0.21000063  0.71398478  0.77798687    -0.37800
N1572       N  0.06510783  0.65269346  0.52384938    -0.37800
C1573       C  0.86723228  0.69553818  0.58875702    -0.04400
C1574       C  0.83153539  0.70439665  0.62685088    -0.01600
C1575       C  0.81714566  0.68730829  0.67079599     0.03400
C1576       C  0.82739900  0.65858028  0.67174307    -0.04400
C1577       C  0.85646959  0.64859253  0.62760343    -0.01600
C1578       C  0.88084476  0.66712550  0.59069988     0.03400
C1579       C  0.81338527  0.73233986  0.62312620     0.38100
C1580       C  0.86512727  0.61938804  0.62250222     0.38100
C1581       C  0.92031239  0.65663917  0.55527803     0.36500
C1582       C  0.80103205  0.70157139  0.71764687     0.36500
N1583       N  0.95145405  0.64786720  0.52696369    -0.38300
N1584       N  0.79273708  0.71691952  0.75154359    -0.38300
N1585       N  0.87277366  0.59614759  0.61787428    -0.37800
N1586       N  0.79964755  0.75463223  0.61705941    -0.37800
C1587       C  0.85232187  0.65259710  0.80034053    -0.04400
C1588       C  0.89410066  0.66587814  0.77593166    -0.01600
C1589       C  0.91857969  0.68807188  0.80199713     0.03400
C1590       C  0.90693550  0.69459043  0.85671866    -0.04400
C1591       C  0.87404100  0.67598096  0.88415913    -0.01600
C1592       C  0.85189440  0.65362008  0.85696036     0.03400
C1593       C  0.92148935  0.65181949  0.73365587     0.38100
C1594       C  0.85130694  0.68288179  0.93528124     0.38100
C1595       C  0.83666982  0.62972881  0.88776826     0.36500
C1596       C  0.95179311  0.70491006  0.76922261     0.36500
N1597       N  0.82582264  0.61042843  0.91239682    -0.38300
N1598       N  0.97576658  0.71820290  0.74001987    -0.38300
N1599       N  0.85113074  0.67670312  0.47359824    -0.37800
N1600       N  0.94519078  0.64005977  0.70179686    -0.37800
C1601       C  0.87888570  0.80911505  0.86882265    -0.04400
C1602       C  0.86253650  0.79947302  0.81848599    -0.01600
C1603       C  0.83441551  0.81637487  0.78253569     0.03400
C1604       C  0.82108898  0.84391838  0.79534418    -0.04400
C1605       C  0.84089181  0.85424965  0.84451812    -0.01600
C1606       C  0.86939571  0.83710909  0.88072739     0.03400
C1607       C  0.87089773  0.77109518  0.80460769     0.38100
C1608       C  0.83074430  0.88254994  0.85840833     0.38100
C1609       C  0.88634919  0.84784266  0.93167205     0.36500
C1610       C  0.81839086  0.80414320  0.73318831     0.36500
N1611       N  0.92299928  0.86008550  0.45752550    -0.38300
N1612       N  0.80946379  0.79348508  0.69309988    -0.38300
N1613       N  0.82238571  0.90522692  0.86887101    -0.37800
N1614       N  0.87584503  0.74859016  0.79149594    -0.37800
C1615       C  0.88535875  0.81623478  0.60442987    -0.04400
C1616       C  0.83654437  0.82379836  0.58566072    -0.01600
C1617       C  0.80457362  0.84262532  0.61422084     0.03400
C1618       C  0.81893693  0.85380973  0.66545522    -0.04400
C1619       C  0.87159427  0.84992212  0.67842479    -0.01600
C1620       C  0.90239380  0.82956377  0.65176116     0.03400
C1621       C  0.81602103  0.80976839  0.53933364     0.38100
C1622       C  0.89502905  0.86725604  0.71835564     0.38100
C1623       C  0.94937949  0.82059050  0.67665146     0.36500
C1624       C  0.75930643  0.85129175  0.58604344     0.36500
N1625       N  0.98597053  0.81302569  0.69799175    -0.38300
N1626       N  0.72509763  0.85807468  0.55991845    -0.38300
N1627       N  0.91437141  0.88116421  0.74978955    -0.37800
N1628       N  0.79844711  0.79836227  0.50332571    -0.37800
C1629       C  0.61992973  0.55812896  0.87376417    -0.04400
C1630       C  0.66254695  0.54427207  0.85129700    -0.01600
C1631       C  0.70114046  0.55919298  0.82302622     0.03400
C1632       C  0.70373215  0.58814055  0.82696006    -0.04400
C1633       C  0.67204776  0.59993633  0.86768990    -0.01600
C1634       C  0.62731342  0.58613487  0.88534776     0.03400
C1635       C  0.67546715  0.51751891  0.87176984     0.38100
C1636       C  0.69127537  0.62091406  0.90263603     0.38100
C1637       C  0.58574073  0.60161008  0.90940628     0.36500
C1638       C  0.74230781  0.54461766  0.79651432     0.36500
N1639       N  0.55003919  0.61294254  0.92576261    -0.38300
N1640       N  0.77558844  0.53292159  0.77603129    -0.38300
N1641       N  0.70774666  0.63605310  0.93368125    -0.37800
N1642       N  0.69253117  0.99599515  0.89038745    -0.37800
C1643       C  0.68993701  0.58291540  0.70512660    -0.04400
C1644       C  0.63651375  0.58804178  0.71122301    -0.01600
C1645       C  0.60077667  0.57791664  0.67452202     0.03400
C1646       C  0.61340562  0.55643168  0.64031189    -0.04400
C1647       C  0.66572899  0.54956319  0.63447597    -0.01600
C1648       C  0.70382819  0.56313451  0.66576575     0.03400
C1649       C  0.61339177  0.59963472  0.75801337     0.38100
C1650       C  0.68094455  0.53203361  0.59064060     0.38100
C1651       C  0.75726278  0.55731373  0.65598574     0.36500
C1652       C  0.55263887  0.59236103  0.66725086     0.36500
N1653       N  0.79981712  0.55230913  0.64792784    -0.38300
N1654       N  0.51557331  0.60481295  0.66022054    -0.38300
N1655       N  0.69449360  0.02300263  0.54888302    -0.37800
N1656       N  0.58628959  0.60690946  0.79187320    -0.37800
C1657       C  0.31401247  0.59163327  0.69993544    -0.04400
C1658       C  0.30070932  0.58143742  0.64781260    -0.01600
C1659       C  0.33772765  0.56929594  0.61192474     0.03400
C1660       C  0.38894542  0.56507995  0.62757263    -0.04400
C1661       C  0.40072820  0.57165189  0.68119568    -0.01600
C1662       C  0.36622337  0.58681296  0.71463150     0.03400
C1663       C  0.24803351  0.58176815  0.63110643     0.38100
C1664       C  0.44705289  0.56048195  0.70458012     0.38100
C1665       C  0.38768688  0.59650483  0.76398940     0.36500
C1666       C  0.32200799  0.55854351  0.56047131     0.36500
N1667       N  0.41019261  0.60139913  0.80254074    -0.38300
N1668       N  0.30980779  0.54934625  0.51976027    -0.38300
N1669       N  0.48263559  0.55127079  0.72534210    -0.37800
N1670       N  0.20644673  0.58116328  0.61596203    -0.37800
C1671       C  0.37663926  0.56324105  0.88814922    -0.04400
C1672       C  0.35317046  0.58720040  0.90907599    -0.01600
C1673       C  0.30962858  0.59898696  0.88399563     0.03400
C1674       C  0.29346373  0.59019168  0.83203801    -0.04400
C1675       C  0.30849641  0.56319843  0.81848655    -0.01600
C1676       C  0.35110693  0.55038128  0.84417361     0.03400
C1677       C  0.37200707  0.59949575  0.95814256     0.38100
C1678       C  0.27870697  0.54819306  0.77960965     0.38100
C1679       C  0.37084244  0.52537702  0.82087228     0.36500
C1680       C  0.27510005  0.61346518  0.91947857     0.36500
N1681       N  0.38661497  0.50581512  0.80049711    -0.38300
N1682       N  0.24800418  0.62382594  0.95027246    -0.38300
N1683       N  0.25423329  0.53611260  0.74928279    -0.37800
N1684       N  0.38698841  0.60919462  0.99734984    -0.37800
C1685       C  0.60714571  0.95323912  0.62455085    -0.04400
C1686       C  0.58786562  0.94229390  0.67368223    -0.01600
C1687       C  0.61826318  0.92479689  0.70646111     0.03400
C1688       C  0.67133539  0.92127916  0.69659692    -0.04400
C1689       C  0.69228036  0.93566046  0.65181878    -0.01600
C1690       C  0.66038578  0.95030941  0.61499999     0.03400
C1691       C  0.53685436  0.94885522  0.69228406     0.38100
C1692       C  0.74686922  0.93433260  0.64218394     0.38100
C1693       C  0.68180099  0.95963147  0.56453132     0.36500
C1694       C  0.59281275  0.90816438  0.74645402     0.36500
N1695       N  0.69932613  0.96612731  0.52368820    -0.38300
N1696       N  0.57222725  0.89506396  0.77860401    -0.38300
N1697       N  0.79049350  0.93315639  0.63484052    -0.37800
N1698       N  0.49752598  0.95379506  0.71140061    -0.37800
C1699       C  0.67579851  0.91199571  0.82654454    -0.04400
C1700       C  0.65114982  0.90082606  0.87402792    -0.01600
C1701       C  0.61723184  0.91687972  0.90723907     0.03400
C1702       C  0.60361929  0.94406775  0.89372603    -0.04400
C1703       C  0.62603832  0.95449538  0.84579713    -0.01600
C1704       C  0.66686746  0.94052900  0.81893750     0.03400
C1705       C  0.66001754  0.87329465  0.89287800     0.38100
C1706       C  0.60233455  0.97711311  0.81769851     0.38100
C1707       C  0.70133930  0.95647085  0.78570311     0.36500
C1708       C  0.59315602  0.90453333  0.95410981     0.36500
N1709       N  0.72912326  0.96956121  0.76007963    -0.38300
N1710       N  0.57288864  0.89458820  0.99065359    -0.38300
N1711       N  0.58398488  0.99418870  0.79180561    -0.37800
N1712       N  0.66515401  0.85223833  0.91360619    -0.37800
C1713       C  0.39164603  0.95072253  0.86740072    -0.04400
C1714       C  0.41190344  0.92944532  0.83718554    -0.01600
C1715       C  0.38100109  0.91446349  0.80204369     0.03400
C1716       C  0.32624425  0.91461247  0.80700006    -0.04400
C1717       C  0.30561549  0.93308198  0.84537392    -0.01600
C1718       C  0.33760295  0.95198644  0.87303382     0.03400
C1719       C  0.46411101  0.92069517  0.84672972     0.38100
C1720       C  0.25110161  0.93346472  0.85513454     0.38100
C1721       C  0.31471688  0.97209586  0.90856383     0.36500
C1722       C  0.41013415  0.90402231  0.75785376     0.36500
N1723       N  0.29621810  0.98801049  0.93710177    -0.38300
N1724       N  0.44225012  0.89989910  0.72679758    -0.38300
N1725       N  0.20757459  0.93393307  0.86315958    -0.37800
N1726       N  0.50469847  0.91290770  0.85642400    -0.37800
C1727       C  0.39571483  0.95100292  0.63502729    -0.04400
C1728       C  0.39563917  0.92295618  0.62298747    -0.01600
C1729       C  0.36126578  0.90476714  0.64885231     0.03400
C1730       C  0.32234672  0.91423489  0.68489910    -0.04400
C1731       C  0.31876248  0.94324156  0.69118385    -0.01600
C1732       C  0.35576090  0.96126163  0.66760518     0.03400
C1733       C  0.43490230  0.91213157  0.58663315     0.38100
C1734       C  0.27628265  0.95487547  0.72084643     0.38100
C1735       C  0.35099607  0.99049768  0.67451000     0.36500
C1736       C  0.37944302  0.87717322  0.64870077     0.36500
N1737       N  0.34747936  0.51382922  0.68458102    -0.38300
N1738       N  0.40657563  0.85852739  0.64693149    -0.38300
N1739       N  0.24239020  0.96461025  0.74399770    -0.37800
N1740       N  0.46592938  0.90331095  0.55819802    -0.37800
C1741       C  0.39959061  0.80494621  0.89936124    -0.04400
C1742       C  0.34606657  0.80297477  0.90170375    -0.01600
C1743       C  0.31635629  0.82173776  0.87260669     0.03400
C1744       C  0.33793796  0.83467055  0.82623728    -0.04400
C1745       C  0.39209724  0.83719195  0.82610033    -0.01600
C1746       C  0.42106474  0.82589376  0.86833272     0.03400
C1747       C  0.32046375  0.78196928  0.93302515     0.38100
C1748       C  0.42041007  0.84407880  0.77878040     0.38100
C1749       C  0.47243730  0.83536592  0.87891350     0.36500
C1750       C  0.26678997  0.82853513  0.89506203     0.36500
N1751       N  0.51281683  0.84363159  0.88813717    -0.38300
N1752       N  0.22881255  0.83403824  0.91656318    -0.38300
N1753       N  0.44764560  0.84587410  0.74238606    -0.37800
N1754       N  0.29753593  0.76569870  0.95684366    -0.37800
C1755       C  0.32854485  0.82301647  0.68856920    -0.04400
C1756       C  0.36383622  0.80258360  0.70622957    -0.01600
C1757       C  0.39748807  0.79017167  0.66958809     0.03400
C1758       C  0.39494575  0.79674469  0.61521164    -0.04400
C1759       C  0.35961354  0.81530402  0.59665726    -0.01600
C1760       C  0.32161668  0.82460827  0.63072577     0.03400
C1761       C  0.36202726  0.78968476  0.75807187     0.38100
C1762       C  0.37053190  0.83050051  0.54772751     0.38100
C1763       C  0.27668391  0.83343060  0.60147828     0.36500
C1764       C  0.43525853  0.77077224  0.68846654     0.36500
N1765       N  0.24290720  0.84066260  0.57509417    -0.38300
N1766       N  0.46534387  0.75602828  0.70624019    -0.38300
N1767       N  0.38053908  0.84463506  0.51185578    -0.37800
N1768       N  0.36470180  0.77694941  0.79716289    -0.37800
C1769       C  0.59513144  0.78956236  0.85246604    -0.04400
C1770       C  0.57524983  0.80233024  0.80725843    -0.01600
C1771       C  0.60475766  0.82134042  0.77839952     0.03400
C1772       C  0.65736880  0.82514651  0.79131387    -0.04400
C1773       C  0.67788220  0.80915446  0.83421945    -0.01600
C1774       C  0.64650817  0.79220437  0.86533864     0.03400
C1775       C  0.52272768  0.79719013  0.79396218     0.38100
C1776       C  0.72952231  0.81090631  0.85280773     0.38100
C1777       C  0.66697385  0.77849952  0.91285643     0.36500
C1778       C  0.57791832  0.83788375  0.73947346     0.36500
N1779       N  0.68423856  0.76845048  0.95081681    -0.38300
N1780       N  0.55320958  0.85000536  0.70917406    -0.38300
N1781       N  0.76680507  0.81042668  0.87715866    -0.37800
N1782       N  0.48025916  0.79244433  0.78686098    -0.37800
C1783       C  0.60795342  0.79952985  0.59337128    -0.04400
C1784       C  0.64929009  0.78893064  0.62247693    -0.01600
C1785       C  0.67166632  0.80457712  0.66308263     0.03400
C1786       C  0.66321823  0.83324876  0.66526366    -0.04400
C1787       C  0.62979035  0.84465745  0.62595500    -0.01600
C1788       C  0.59932356  0.82768461  0.59353531     0.03400
C1789       C  0.67443044  0.76409789  0.60477809     0.38100
C1790       C  0.62262199  0.87340581  0.61867276     0.38100
C1791       C  0.55890259  0.83910424  0.56035516     0.36500
C1792       C  0.69913164  0.79002954  0.70418025     0.36500
N1793       N  0.52665724  0.84797070  0.53382860    -0.38300
N1794       N  0.71829604  0.77750634  0.73800838    -0.38300
N1795       N  0.61223448  0.89532169  0.60553782    -0.37800
N1796       N  0.69638239  0.74510176  0.58909791    -0.37800
C1797       C  0.61779395  0.68888287  0.89160618    -0.04400
C1798       C  0.59596228  0.67583108  0.84680414    -0.01600
C1799       C  0.62686456  0.66733831  0.80374330     0.03400
C1800       C  0.68064172  0.66942672  0.80725994    -0.04400
C1801       C  0.70144105  0.68323915  0.85226550    -0.01600
C1802       C  0.67072688  0.69095915  0.89558910     0.03400
C1803       C  0.54151984  0.67107496  0.84457411     0.38100
C1804       C  0.75156372  0.69506994  0.85137234     0.38100
C1805       C  0.69394883  0.70096217  0.94487269     0.36500
C1806       C  0.60179726  0.65933757  0.75472035     0.36500
N1807       N  0.71225350  0.70871610  0.98417946    -0.38300
N1808       N  0.58025764  0.65295749  0.71627492    -0.38300
N1809       N  0.78800870  0.70814311  0.85521771    -0.37800
N1810       N  0.49812612  0.66703023  0.84406902    -0.37800
C1811       C  0.68231217  0.66616052  0.67368046    -0.04400
C1812       C  0.66529777  0.65361678  0.62455826    -0.01600
C1813       C  0.63463551  0.66818371  0.58852377     0.03400
C1814       C  0.61676416  0.69398828  0.60161651    -0.04400
C1815       C  0.62821144  0.70558643  0.65126060    -0.01600
C1816       C  0.66575305  0.69365996  0.68351785     0.03400
C1817       C  0.67750153  0.62619859  0.60701687     0.38100
C1818       C  0.59872314  0.72849366  0.67227974     0.38100
C1819       C  0.68234138  0.71023406  0.72793620     0.36500
C1820       C  0.61955848  0.65630984  0.53783042     0.36500
N1821       N  0.69001454  0.72492136  0.76332015    -0.38300
N1822       N  0.60740512  0.64714304  0.49732046    -0.38300
N1823       N  0.57646317  0.74621908  0.69259208    -0.37800
N1824       N  0.68653245  0.60548661  0.58654859    -0.37800
C1825       C  0.36510673  0.70183749  0.90156082    -0.04400
C1826       C  0.32727205  0.68347834  0.91727147    -0.01600
C1827       C  0.28797057  0.67769117  0.88176632     0.03400
C1828       C  0.29528846  0.68188000  0.82623644    -0.04400
C1829       C  0.32778635  0.70383387  0.81209794    -0.01600
C1830       C  0.36636083  0.71150193  0.84808550     0.03400
C1831       C  0.32667190  0.67135744  0.97035743     0.38100
C1832       C  0.32008214  0.71988458  0.76399495     0.38100
C1833       C  0.41273977  0.72319279  0.82657277     0.36500
C1834       C  0.23918166  0.68521094  0.90367969     0.36500
N1835       N  0.45087759  0.73112564  0.80893202    -0.38300
N1836       N  0.20377706  0.69414282  0.92521182    -0.38300
N1837       N  0.31365147  0.73314483  0.72603166    -0.37800
N1838       N  0.32606481  0.66077633  0.01198541    -0.37800
C1839       C  0.32391376  0.67133117  0.69797321    -0.04400
C1840       C  0.37560561  0.67198259  0.71440036    -0.01600
C1841       C  0.41242226  0.68591194  0.68338259     0.03400
C1842       C  0.39814118  0.69937332  0.63547943    -0.04400
C1843       C  0.34655328  0.69946148  0.62015665    -0.01600
C1844       C  0.31127113  0.68331975  0.64780624     0.03400
C1845       C  0.39053218  0.66094984  0.76575044     0.38100
C1846       C  0.32728025  0.71745752  0.57811097     0.38100
C1847       C  0.26413451  0.67825347  0.62006197     0.36500
C1848       C  0.46374027  0.68857366  0.70383497     0.36500
N1849       N  0.23015853  0.67418827  0.59189516    -0.38300
N1850       N  0.50404909  0.69207290  0.72100877    -0.38300
N1851       N  0.30846320  0.73099137  0.54548126    -0.37800
N1852       N  0.40150111  0.65465784  0.80892654    -0.37800
loop_ 
_geom_bond_atom_site_label_1 
_geom_bond_atom_site_label_2 
_geom_bond_distance 
_geom_bond_site_symmetry_2 
_ccdc_geom_bond_type 
O1            C9   1.266       .  A
O1          Co21   1.894       .  S
O2           C10   1.243       .  A
O2          Co22   1.937       .  S
O3           C11   1.259       .  A
O3          Co23   1.973       .  S
O4           C12   1.275       .  A
O4          Co24   2.016   1_554  S
O5           C11   1.245       .  A
O5          Co22   1.914       .  S
O6           C12   1.259       .  A
O6          Co21   1.945       .  S
O7           C10   1.242       .  A
O7         Co487   1.939       .  S
O8            C9   1.297       .  A
O8         Co486   2.094       .  S
C9          C453   1.492       .  S
C10         C408   1.467       .  S
C11         C436   1.438       .  S
C12         C425   1.456       .  S
O13          C26   1.265       .  A
O13         Co21   2.027       .  S
O14          C27   1.263       .  A
O14         Co22   1.996       .  S
O15          C28   1.256       .  A
O15        Co486   1.848       .  S
O16          C29   1.284       .  A
O16        Co487   1.856       .  S
O17          C29   1.290       .  A
O17         Co22   2.035       .  S
O18          C28   1.286       .  A
O18         Co21   2.070       .  S
O19          C26   1.251       .  A
O19         Co24   1.950   1_554  S
O20          C27   1.256       .  A
O20         Co23   1.983       .  S
Co21         O25   1.978   1_554  S
Co22        O488   2.030       .  S
Co23        O471   2.064       .  S
Co23        O478   1.867       .  S
Co23        O488   1.939       .  S
Co24        O470   1.995       .  S
Co24        O479   1.946       .  S
Co24         O25   1.990       .  S
O25        Co485   1.998       .  S
O25        Co486   1.977   1_556  S
C26         C394   1.481       .  S
C27         C352   1.481       .  S
C28         C369   1.444       .  S
C29         C380   1.471       .  S
O30          C38   1.257       .  A
O30        Co976   1.995       .  S
O31          C39   1.283       .  A
O31         Co51   1.949       .  S
O32          C40   1.280       .  A
O32        Co515   2.093       .  S
O33          C41   1.299       .  A
O33         Co53   2.104       .  S
O34          C40   1.263       .  A
O34        Co977   1.987       .  S
O35          C41   1.277       .  A
O35         Co50   1.902       .  S
O36          C39   1.299       .  A
O36        Co516   2.093       .  S
O37          C38   1.274       .  A
O37         Co52   2.060   1_554  S
C38         C296   1.523       .  S
C39         C240   1.544       .  S
C40         C313   1.551       .  S
C41         C257   1.503       .  S
O42          C55   1.247       .  A
O42         Co50   1.991       .  S
O43          C56   1.289       .  A
O43        Co977   2.063       .  S
O44          C57   1.246       .  A
O44         Co52   1.957   1_554  S
O45          C58   1.264       .  A
O45        Co516   2.024       .  S
O46          C58   1.253       .  A
O46         Co51   2.006       .  S
O47          C57   1.282       .  A
O47        Co976   2.065       .  S
O48          C55   1.262       .  A
O48         Co53   2.047       .  S
O49          C56   1.247       .  A
O49        Co515   1.944       .  S
Co50        O956   1.997   1_545  S
Co50        O973   2.064   1_545  S
Co50         O54   1.982       .  S
Co51        O960   1.986   1_545  S
Co51        O969   2.073   1_545  S
Co51        O517   2.020       .  S
Co52        O495   2.071       .  S
Co52        O512   1.940       .  S
Co52        O980   2.074       .  S
Co53        O499   2.081   1_554  S
Co53        O508   2.023   1_554  S
Co53         O54   2.211       .  S
O54        Co514   2.002   1_554  S
O54        Co978   2.070   1_545  S
C55         C271   1.528       .  S
C56         C324   1.507       .  S
C57         C338   1.507       .  S
C58         C282   1.547       .  S
O59          C67   1.273       .  A
O59         Co79   2.007   1_554  S
O60          C68   1.255       .  A
O60         Co80   2.011       .  S
O61          C69   1.285       .  A
O61         Co81   2.078   1_455  S
O62          C70   1.294       .  A
O62         Co82   2.086       .  S
O63          C69   1.253       .  A
O63        Co543   1.972       .  S
O64          C70   1.281       .  A
O64        Co542   1.943       .  S
O65          C68   1.243       .  A
O65         Co82   1.954   1_455  S
O66          C67   1.277       .  A
O66         Co81   2.046       .  S
C67         C226   1.530       .  S
C68         C142   1.473       .  S
C69         C131   1.521       .  S
C70         C212   1.520       .  S
O71          C84   1.284       .  A
O71        Co542   2.091       .  S
O72          C85   1.280       .  A
O72        Co543   2.083       .  S
O73          C86   1.244       .  A
O73         Co81   1.969       .  S
O74          C87   1.264       .  A
O74         Co82   1.987   1_455  S
O75          C87   1.285       .  A
O75         Co80   2.075       .  S
O76          C86   1.279       .  A
O76         Co79   2.067   1_554  S
O77          C84   1.238       .  A
O77         Co82   1.965       .  S
O78          C85   1.241       .  A
O78         Co81   1.943   1_455  S
Co79        O527   1.945       .  S
Co79        O534   2.116       .  S
Co79         O83   2.072   1_656  S
Co80        O526   1.978       .  S
Co80        O535   2.083       .  S
Co80        O546   2.096   1_455  S
Co81         O83   2.066   1_655  S
Co82        O546   2.093       .  S
O83        Co543   2.089       .  S
O83        Co545   2.056   1_454  S
C84         C201   1.532       .  S
C85         C170   1.521       .  S
C86         C184   1.523       .  S
C87         C159   1.533       .  S
C88          H89   1.077       .  S
C88          C94   1.563       .  S
C88          C93   1.584       .  S
C88          C92   1.562       .  S
C90          H91   1.100       .  S
C90          C96   1.559       .  S
C90          C95   1.527       .  S
C90          C97   1.583       .  S
C92          C95   1.405       .  D
C92         C439   1.524       .  S
C93          C96   1.404       .  D
C93         C285   1.563       .  S
C94          C97   1.398       .  D
C94         C156   1.575       .  S
C95         C450   1.524       .  S
C96         C268   1.573       .  S
C97         C173   1.540       .  S
C98          H99   1.096       .  S
C98         C104   1.554       .  S
C98         C103   1.589       .  S
C98         C102   1.538       .  S
C100        H101   1.078       .  S
C100        C106   1.553       .  S
C100        C105   1.557       .  S
C100        C107   1.574       .  S
C102        C105   1.395       .  D
C102        C422   1.523       .  S
C103        C106   1.396       .  D
C103        C254   1.546       .  S
C104        C107   1.388       .  D
C104        C187   1.547       .  S
C105        C411   1.500       .  S
C106        C243   1.566       .  S
C107        C198   1.559       .  S
C108        H109   1.087       .  S
C108        C114   1.558       .  S
C108        C113   1.558       .  S
C108        C112   1.565       .  S
C110        H111   1.092       .  S
C110        C116   1.555       .  S
C110        C115   1.545       .  S
C110        C117   1.590       .  S
C112        C115   1.432       .  D
C112        C366   1.536       .  S
C113        C116   1.373       .  D
C113        C341   1.549       .  S
C114        C117   1.374       .  D
C114        C128   1.558       .  S
C115        C355   1.546       .  S
C116        C327   1.545       .  S
C117        C145   1.542       .  S
C118        H119   1.073       .  S
C118        C124   1.565       .  S
C118        C123   1.560       .  S
C118        C122   1.544       .  S
C120        H121   1.092       .  S
C120        C126   1.574       .  S
C120        C125   1.555       .  S
C120        C127   1.577       .  S
C122        C125   1.407       .  D
C122        C383   1.518       .  S
C123        C126   1.403       .  D
C123        C310   1.595       .  S
C124        C127   1.404       .  D
C124        C215   1.558       .  S
C125        C397   1.531       .  S
C126        C299   1.535       .  S
C127        C229   1.579       .  S
C128        C129   1.429       .  A
C128        C133   1.425       .  A
C129        C130   1.412       .  A
C129        C134   1.434       .  S
C130        C131   1.401       .  A
C130        C137   1.457       .  S
C131        C132   1.423       .  A
C132        C133   1.441       .  A
C132        C135   1.447       .  S
C133        C136   1.447       .  S
C134        N141   1.155       .  T
C135        N140   1.157       .  T
C136        N138   1.157       .  T
C137        N139   1.157       .  T
C142        C143   1.409       .  A
C142        C147   1.391       .  A
C143        C144   1.424       .  A
C143        C148   1.446       .  S
C144        C145   1.420       .  A
C144        C151   1.444       .  S
C145        C146   1.426       .  A
C146        C147   1.407       .  A
C146        C149   1.421       .  S
C147        C150   1.464       .  S
C148        N155   1.156   1_455  T
C149        N154   1.151       .  T
C150        N152   1.157       .  T
C151        N153   1.156       .  T
C156        C157   1.413       .  A
C156        C161   1.419       .  A
C157        C158   1.425       .  A
C157        C162   1.440       .  S
C158        C159   1.411       .  A
C158        C165   1.440       .  S
C159        C160   1.421       .  A
C160        C161   1.428       .  A
C160        C163   1.439       .  S
C161        C164   1.442       .  S
C162        N169   1.156       .  T
C163        N168   1.154       .  T
C164        N166   1.156       .  T
C165        N167   1.155       .  T
C170        C171   1.423       .  A
C170        C175   1.412       .  A
C171        C172   1.428       .  A
C171        C176   1.449       .  S
C172        C173   1.418       .  A
C172        C179   1.447       .  S
C173        C174   1.429       .  A
C174        C175   1.423       .  A
C174        C177   1.445       .  S
C175        C178   1.449       .  S
C176        N183   1.157       .  T
C177        N182   1.157       .  T
C178        N180   1.157       .  T
C179        N181   1.157       .  T
C184        C185   1.398       .  A
C184        C189   1.426       .  A
C185        C186   1.421       .  A
C185        C190   1.446       .  S
C186        C187   1.428       .  A
C186        C193   1.429       .  S
C187        C188   1.418       .  A
C188        C189   1.432       .  A
C188        C191   1.448       .  S
C189        C192   1.449       .  S
C190        N197   1.155       .  T
C191        N196   1.157       .  T
C192        N194   1.157       .  T
C193        N195   1.151       .  T
C198        C199   1.416       .  A
C198        C203   1.415       .  A
C199        C200   1.421       .  A
C199        C204   1.446       .  S
C200        C201   1.433       .  A
C200        C207   1.453       .  S
C201        C202   1.412       .  A
C202        C203   1.417       .  A
C202        C205   1.439       .  S
C203        C206   1.445       .  S
C204        N211   1.158       .  T
C205        N673   1.154       .  T
C206        N208   1.156       .  T
C207        N209   1.159       .  T
N210        C668   1.155       .  T
C212        C213   1.404       .  A
C212        C217   1.420       .  A
C213        C214   1.419       .  A
C213        C218   1.445       .  S
C214        C215   1.422       .  A
C214        C221   1.433       .  S
C215        C216   1.427       .  A
C216        C217   1.439       .  A
C216        C219   1.447       .  S
C217        C220   1.450       .  S
C218        N225   1.154       .  T
C219        N224   1.157       .  T
C220        N685   1.158       .  T
C221        N223   1.154       .  T
N222        C683   1.157       .  T
C226        C227   1.412       .  A
C226        C231   1.416       .  A
C227        C228   1.431       .  A
C227        C232   1.454       .  S
C228        C229   1.444       .  A
C228        C235   1.443       .  S
C229        C230   1.429       .  A
C230        C231   1.431       .  A
C230        C233   1.446       .  S
C231        C234   1.448       .  S
C232        N239   1.156       .  T
C233        N238   1.157       .  T
C234        N236   1.157       .  T
C235        N237   1.157       .  T
C240        C241   1.415       .  A
C240        C245   1.418       .  A
C241        C242   1.434       .  A
C241        C246   1.439       .  S
C242        C243   1.422       .  A
C242        C249   1.448       .  S
C243        C244   1.437       .  A
C244        C245   1.428       .  A
C244        C247   1.444       .  S
C245        C248   1.447       .  S
C246       N1179   1.156   1_545  T
C247        N252   1.158       .  T
C248        N250   1.155       .  T
C249        N251   1.157       .  T
N253       C1172   1.156       .  T
C254        C255   1.428       .  A
C254        C259   1.424       .  A
C255        C256   1.406       .  A
C255        C260   1.433       .  S
C256        C257   1.393       .  A
C256        C263   1.450       .  S
C257        C258   1.416       .  A
C258        C259   1.434       .  A
C258        C261   1.445       .  S
C259        C262   1.447       .  S
C260        N267   1.156       .  T
C261       N1192   1.156       .  T
C262        N264   1.157       .  T
C263        N265   1.157       .  T
N266       C1187   1.154       .  T
C268        C269   1.435       .  A
C268        C273   1.433       .  A
C269        C270   1.440       .  A
C269        C274   1.443       .  S
C270        C271   1.414       .  A
C270        C277   1.449       .  S
C271        C272   1.409       .  A
C272        C273   1.422       .  A
C272        C275   1.453       .  S
C273        C276   1.438       .  S
C274        N281   1.155       .  T
C275        N280   1.157       .  T
C276        N278   1.155       .  T
C277        N279   1.157       .  T
C282        C283   1.424       .  A
C282        C287   1.440       .  A
C283        C284   1.417       .  A
C283        C288   1.450       .  S
C284        C285   1.413       .  A
C284        C291   1.439       .  S
C285        C286   1.413       .  A
C286        C287   1.440       .  A
C286        C289   1.445       .  S
C287        C290   1.445       .  S
C288        N295   1.157       .  T
C289        N294   1.157       .  T
C290        N292   1.157       .  T
C291        N293   1.156       .  T
C296        C297   1.417       .  A
C296        C301   1.419       .  A
C297        C298   1.419       .  A
C297        C302   1.441       .  S
C298        C299   1.417       .  A
C298        C305   1.441       .  S
C299        C300   1.420       .  A
C300        C301   1.431       .  A
C300        C303   1.447       .  S
C301        C304   1.446       .  S
C302        N309   1.154       .  T
C303        N308   1.157       .  T
C304        N306   1.157   1_554  T
C305        N307   1.154       .  T
C310        C311   1.432       .  A
C310        C315   1.425       .  A
C311        C312   1.428       .  A
C311        C316   1.445       .  S
C312        C313   1.408       .  A
C312        C319   1.441       .  S
C313        C314   1.430       .  A
C314        C315   1.439       .  A
C314        C317   1.446       .  S
C315        C318   1.448       .  S
C316        N323   1.157       .  T
C317        N322   1.158       .  T
C318        N320   1.158       .  T
C319        N321   1.154       .  T
C324        C325   1.391       .  A
C324        C329   1.424       .  A
C325        C326   1.411       .  A
C325        C330   1.448       .  S
C326        C327   1.431       .  A
C326        C333   1.427       .  S
C327        C328   1.419       .  A
C328        C329   1.429       .  A
C328        C331   1.449       .  S
C329        C332   1.450       .  S
C330        N337   1.153       .  T
C331        N336   1.157       .  T
C332        N334   1.157       .  T
C333        N335   1.153       .  T
C338        C339   1.404       .  A
C338        C343   1.412       .  A
C339        C340   1.416       .  A
C339        C344   1.463       .  S
C340        C341   1.431       .  A
C340        C347   1.429       .  S
C341        C342   1.423       .  A
C342        C343   1.430       .  A
C342        C345   1.449       .  S
C343        C346   1.435       .  S
C344        N351   1.158       .  T
C345        N350   1.157       .  T
C346       N1274   1.152       .  T
C347        N349   1.152       .  T
N348       C1272   1.152   1_545  T
C352        C353   1.402       .  A
C352        C357   1.395       .  A
C353        C354   1.402       .  A
C353        C358   1.450       .  S
C354        C355   1.439       .  A
C354        C361   1.452       .  S
C355        C356   1.439       .  A
C356        C357   1.415       .  A
C356        C359   1.438       .  S
C357        C360   1.442       .  S
C358        N365   1.156       .  T
C359        N364   1.157       .  T
C360        N362   1.155       .  T
C361        N363   1.158       .  T
C366        C367   1.415       .  A
C366        C371   1.453       .  A
C367        C368   1.395       .  A
C367        C372   1.434       .  S
C368        C369   1.392       .  A
C368        C375   1.438       .  S
C369        C370   1.384       .  A
C370        C371   1.390       .  A
C370        C373   1.453       .  S
C371        C374   1.451       .  S
C372        N379   1.154       .  T
C373        N378   1.155       .  T
C374        N376   1.159       .  T
C375        N377   1.152       .  T
C380        C381   1.414       .  A
C380        C385   1.395       .  A
C381        C382   1.397       .  A
C381        C386   1.447       .  S
C382        C383   1.419       .  A
C382        C389   1.449       .  S
C383        C384   1.442       .  A
C384        C385   1.398       .  A
C384        C387   1.440       .  S
C385        C388   1.460       .  S
C386        N393   1.153       .  T
C387        N392   1.156       .  T
C388        N390   1.157       .  T
C389        N391   1.158       .  T
C394        C395   1.406       .  A
C394        C399   1.400       .  A
C395        C396   1.407       .  A
C395        C400   1.445       .  S
C396        C397   1.427       .  A
C396        C403   1.443       .  S
C397        C398   1.430       .  A
C398        C399   1.410       .  A
C398        C401   1.432       .  S
C399        C402   1.456       .  S
C400        N407   1.156       .  T
C401        N406   1.153       .  T
C402        N404   1.157       .  T
C403        N405   1.158       .  T
C408        C409   1.396       .  A
C408        C413   1.397       .  A
C409        C410   1.400       .  A
C409        C414   1.446       .  S
C410        C411   1.422       .  A
C410        C417   1.444       .  S
C411        C412   1.415       .  A
C412        C413   1.390       .  A
C412        C415   1.437       .  S
C413        C416   1.456       .  S
C414        N421   1.155       .  T
C415        N420   1.152       .  T
C416        N418   1.157       .  T
C417        N419   1.156       .  T
C422        C423   1.442       .  A
C422        C427   1.433       .  A
C423        C424   1.406       .  A
C423        C428   1.444       .  S
C424        C425   1.387       .  A
C424        C431   1.446       .  S
C425        C426   1.393       .  A
C426        C427   1.396       .  A
C426        C429   1.449       .  S
C427        C430   1.447       .  S
C428        N435   1.156       .  T
C429        N434   1.155       .  T
C430        N432   1.158       .  T
C431        N433   1.153   1_554  T
C436        C437   1.388       .  A
C436        C441   1.394       .  A
C437        C438   1.396       .  A
C437        C442   1.455       .  S
C438        C439   1.433       .  A
C438        C445   1.436       .  S
C439        C440   1.423       .  A
C440        C441   1.389       .  A
C440        C443   1.447       .  S
C441        C444   1.443       .  S
C442        N449   1.157       .  T
C443        N448   1.157       .  T
C444        N446   1.154       .  T
C445        N447   1.155       .  T
C450        C451   1.420       .  A
C450        C455   1.424       .  A
C451        C452   1.414       .  A
C451        C456   1.443       .  S
C452        C453   1.413       .  A
C452        C459   1.447       .  S
C453        C454   1.408       .  A
C454        C455   1.406       .  A
C454        C457   1.454       .  S
C455        C458   1.443       .  S
C456        N463   1.156       .  T
C457        N462   1.157       .  T
C458        N460   1.155       .  T
C459        N461   1.155       .  T
O464        C472   1.272       .  A
O464       Co484   1.850       .  S
O465        C473   1.248       .  A
O465       Co485   1.931       .  S
O466        C474   1.251       .  A
O466       Co486   2.001   1_556  S
O467        C475   1.276       .  A
O467       Co487   2.014       .  S
O468        C474   1.235       .  A
O468       Co485   1.941       .  S
O469        C475   1.256       .  A
O469       Co484   1.932       .  S
O470        C473   1.270       .  A
O471        C472   1.297       .  A
C472        C916   1.479       .  S
C473        C871   1.462       .  S
C474        C899   1.461       .  S
C475        C888   1.456       .  S
O476        C489   1.268       .  A
O476       Co484   2.012       .  S
O477        C490   1.283       .  A
O477       Co485   2.057       .  S
O478        C491   1.253       .  A
O479        C492   1.255       .  A
O480        C492   1.261       .  A
O480       Co485   1.999       .  S
O481        C491   1.273       .  A
O481       Co484   2.053       .  S
O482        C489   1.263       .  A
O482       Co487   1.969       .  S
O483        C490   1.257       .  A
O483       Co486   1.949   1_556  S
Co484       O488   1.956       .  S
Co487       O488   1.906       .  S
C489        C857   1.481       .  S
C490        C815   1.468       .  S
C491        C832   1.434       .  S
C492        C843   1.458       .  S
O493        C501   1.260       .  A
O493      Co1439   2.005       .  S
O494        C502   1.285       .  A
O494       Co514   1.943       .  S
O495        C503   1.279       .  A
O496        C504   1.297       .  A
O496       Co516   2.090       .  S
O497        C503   1.266       .  A
O497      Co1440   2.005       .  S
O498        C504   1.281       .  A
O498       Co513   1.915       .  S
O499        C502   1.296       .  A
O500        C501   1.274       .  A
O500       Co515   2.066       .  S
C501        C759   1.533       .  S
C502        C703   1.524       .  S
C503        C776   1.551       .  S
C504        C720   1.502       .  S
O505        C518   1.243       .  A
O505       Co513   1.996       .  S
O506        C519   1.289       .  A
O506      Co1440   2.055       .  S
O507        C520   1.248       .  A
O507       Co515   1.963       .  S
O508        C521   1.261       .  A
O509        C521   1.246       .  A
O509       Co514   1.987       .  S
O510        C520   1.280       .  A
O510      Co1439   2.050       .  S
O511        C518   1.263       .  A
O511       Co516   2.062       .  S
O512        C519   1.245       .  A
Co513      O1419   2.002   1_545  S
Co513      O1436   2.051   1_545  S
Co513       O517   1.985       .  S
Co514      O1423   2.001   1_545  S
Co514      O1432   2.065   1_545  S
Co515      O1443   2.089       .  S
Co516       O517   2.222       .  S
O517      Co1441   2.094   1_545  S
C518        C734   1.534       .  S
C519        C787   1.505       .  S
C520        C801   1.504       .  S
C521        C745   1.536       .  S
O522        C530   1.275       .  A
O522       Co542   2.019       .  S
O523        C531   1.249       .  A
O523       Co543   1.991   1_556  S
O524        C532   1.285       .  A
O524       Co544   2.089   1_455  S
O525        C533   1.296       .  A
O525       Co545   2.111       .  S
O526        C532   1.250       .  A
O527        C533   1.274       .  A
O528        C531   1.270       .  A
O528       Co545   2.041   1_455  S
O529        C530   1.276       .  A
O529       Co544   2.049       .  S
C530        C689   1.538       .  S
C531        C605   1.518       .  S
C532        C594   1.529       .  S
C533        C675   1.528       .  S
O534        C547   1.299       .  A
O535        C548   1.279       .  A
O536        C549   1.244       .  A
O536       Co544   1.959       .  S
O537        C550   1.263       .  A
O537       Co545   2.001   1_455  S
O538        C550   1.287       .  A
O538       Co543   2.089   1_556  S
O539        C549   1.286       .  A
O539       Co542   2.069       .  S
O540        C547   1.268       .  A
O540       Co545   1.932       .  S
O541        C548   1.244       .  A
O541       Co544   1.958   1_455  S
Co542       O546   2.035       .  S
Co544       O546   2.072       .  S
C547        C664   1.532       .  S
C548        C633   1.525       .  S
C549        C647   1.526       .  S
C550        C622   1.537       .  S
C551        H552   1.077       .  S
C551        C557   1.560       .  S
C551        C556   1.580       .  S
C551        C555   1.556       .  S
C553        H554   1.103       .  S
C553        C559   1.568       .  S
C553        C558   1.528       .  S
C553        C560   1.584       .  S
C555        C558   1.402       .  D
C555        C902   1.531       .  S
C556        C559   1.409       .  D
C556        C748   1.560       .  S
C557        C560   1.398       .  D
C557        C619   1.573       .  S
C558        C913   1.503       .  S
C559        C731   1.583       .  S
C560        C636   1.543       .  S
C561        H562   1.091       .  S
C561        C567   1.553       .  S
C561        C566   1.588       .  S
C561        C565   1.535       .  S
C563        H564   1.082       .  S
C563        C569   1.549       .  S
C563        C568   1.552       .  S
C563        C570   1.570       .  S
C565        C568   1.406       .  D
C565        C885   1.532       .  S
C566        C569   1.388       .  D
C566        C717   1.543       .  S
C567        C570   1.394       .  D
C567        C650   1.564       .  S
C568        C874   1.495       .  S
C569        C706   1.559       .  S
C570        C661   1.551       .  S
C571        H572   1.082       .  S
C571        C577   1.563       .  S
C571        C576   1.562       .  S
C571        C575   1.566       .  S
C573        H574   1.103       .  S
C573        C579   1.567       .  S
C573        C578   1.541       .  S
C573        C580   1.596       .  S
C575        C578   1.426       .  D
C575        C829   1.539       .  S
C576        C579   1.371       .  D
C576        C804   1.553       .  S
C577        C580   1.378       .  D
C577        C591   1.560       .  S
C578        C818   1.524       .  S
C579        C790   1.546       .  S
C580        C608   1.553       .  S
C581        H582   1.096       .  S
C581        C587   1.584       .  S
C581        C586   1.576       .  S
C581        C585   1.565       .  S
C583        H584   1.081       .  S
C583        C589   1.564       .  S
C583        C588   1.541       .  S
C583        C590   1.573       .  S
C585        C588   1.391       .  D
C585        C846   1.519       .  S
C586        C589   1.403       .  D
C586        C773   1.591       .  S
C587        C590   1.413       .  D
C587        C678   1.562       .  S
C588        C860   1.528       .  S
C589        C762   1.545       .  S
C590        C692   1.581       .  S
C591        C592   1.431       .  A
C591        C596   1.427       .  A
C592        C593   1.411       .  A
C592        C597   1.435       .  S
C593        C594   1.400       .  A
C593        C600   1.457       .  S
C594        C595   1.424       .  A
C595        C596   1.444       .  A
C595        C598   1.446       .  S
C596        C599   1.447       .  S
C597        N604   1.156       .  T
C598        N603   1.157       .  T
C599        N601   1.157       .  T
C600        N602   1.157       .  T
C605        C606   1.420       .  A
C605        C610   1.397       .  A
C606        C607   1.438       .  A
C606        C611   1.447       .  S
C607        C608   1.422       .  A
C607        C614   1.445       .  S
C608        C609   1.426       .  A
C609        C610   1.417       .  A
C609        C612   1.425       .  S
C610        C613   1.449       .  S
C611        N618   1.157       .  T
C612        N617   1.150       .  T
C613        N615   1.153       .  T
C614        N616   1.157       .  T
C619        C620   1.420       .  A
C619        C624   1.415       .  A
C620        C621   1.434       .  A
C620        C625   1.449       .  S
C621        C622   1.425       .  A
C621        C628   1.441       .  S
C622        C623   1.418       .  A
C623        C624   1.420       .  A
C623        C626   1.443       .  S
C624        C627   1.442       .  S
C625        N632   1.158       .  T
C626        N631   1.156       .  T
C627        N629   1.157       .  T
C628        N630   1.155   1_556  T
C633        C634   1.425       .  A
C633        C638   1.411       .  A
C634        C635   1.435       .  A
C634        C639   1.449       .  S
C635        C636   1.421       .  A
C635        C642   1.446       .  S
C636        C637   1.427       .  A
C637        C638   1.422       .  A
C637        C640   1.441       .  S
C638        C641   1.446       .  S
C639        N646   1.157       .  T
C640        N645   1.154       .  T
C641        N643   1.156       .  T
C642        N644   1.157       .  T
C647        C648   1.395       .  A
C647        C652   1.427       .  A
C648        C649   1.426       .  A
C648        C653   1.447       .  S
C649        C650   1.431       .  A
C649        C656   1.424       .  S
C650        C651   1.422       .  A
C651        C652   1.434       .  A
C651        C654   1.447       .  S
C652        C655   1.450       .  S
C653        N660   1.155       .  T
C654        N659   1.156       .  T
C655        N657   1.157       .  T
C656        N658   1.150       .  T
C661        C662   1.409       .  A
C661        C666   1.418       .  A
C662        C663   1.421       .  A
C662        C667   1.445       .  S
C663        C664   1.430       .  A
C663        C670   1.445       .  S
C664        C665   1.424       .  A
C665        C666   1.416       .  A
C665        C668   1.443       .  S
C666        C669   1.450       .  S
C667        N674   1.157       .  T
C669        N671   1.158       .  T
C670        N672   1.156       .  T
C675        C676   1.409       .  A
C675        C680   1.420       .  A
C676        C677   1.424       .  A
C676        C681   1.447       .  S
C677        C678   1.426       .  A
C677        C684   1.432       .  S
C678        C679   1.429       .  A
C679        C680   1.442       .  A
C679        C682   1.447       .  S
C680        C683   1.448       .  S
C681        N688   1.154       .  T
C682        N687   1.157       .  T
C684        N686   1.152       .  T
C689        C690   1.413       .  A
C689        C694   1.423       .  A
C690        C691   1.427       .  A
C690        C695   1.449       .  S
C691        C692   1.441       .  A
C691        C698   1.446       .  S
C692        C693   1.428       .  A
C693        C694   1.437       .  A
C693        C696   1.447       .  S
C694        C697   1.447       .  S
C695        N702   1.155       .  T
C696        N701   1.157       .  T
C697        N699   1.157       .  T
C698        N700   1.158       .  T
C703        C704   1.416       .  A
C703        C708   1.412       .  A
C704        C705   1.431       .  A
C704        C709   1.441       .  S
C705        C706   1.421       .  A
C705        C712   1.446       .  S
C706        C707   1.431       .  A
C707        C708   1.421       .  A
C707        C710   1.438       .  S
C708        C711   1.452       .  S
C709       N1642   1.156   1_545  T
C710        N715   1.156       .  T
C711        N713   1.157       .  T
C712        N714   1.157       .  T
N716       C1635   1.156       .  T
C717        C718   1.428       .  A
C717        C722   1.421       .  A
C718        C719   1.405       .  A
C718        C723   1.430       .  S
C719        C720   1.392       .  A
C719        C726   1.454       .  S
C720        C721   1.416       .  A
C721        C722   1.433       .  A
C721        C724   1.443       .  S
C722        C725   1.446       .  S
C723        N730   1.156       .  T
C724       N1655   1.156       .  T
C725        N727   1.157       .  T
C726        N728   1.157       .  T
N729       C1650   1.155       .  T
C731        C732   1.434       .  A
C731        C736   1.439       .  A
C732        C733   1.440       .  A
C732        C737   1.442       .  S
C733        C734   1.412       .  A
C733        C740   1.448       .  S
C734        C735   1.409       .  A
C735        C736   1.429       .  A
C735        C738   1.454       .  S
C736        C739   1.438       .  S
C737        N744   1.155       .  T
C738        N743   1.158       .  T
C739        N741   1.156       .  T
C740        N742   1.157       .  T
C745        C746   1.420       .  A
C745        C750   1.435       .  A
C746        C747   1.418       .  A
C746        C751   1.453       .  S
C747        C748   1.428       .  A
C747        C754   1.443       .  S
C748        C749   1.417       .  A
C749        C750   1.433       .  A
C749        C752   1.449       .  S
C750        C753   1.446       .  S
C751        N758   1.158       .  T
C752        N757   1.157       .  T
C753        N755   1.157       .  T
C754        N756   1.157       .  T
C759        C760   1.423       .  A
C759        C764   1.421       .  A
C760        C761   1.423       .  A
C760        C765   1.442       .  S
C761        C762   1.418       .  A
C761        C768   1.447       .  S
C762        C763   1.427       .  A
C763        C764   1.435       .  A
C763        C766   1.450       .  S
C764        C767   1.447       .  S
C765        N772   1.155       .  T
C766        N771   1.157       .  T
C767        N769   1.158       .  T
C768        N770   1.156       .  T
C773        C774   1.446       .  A
C773        C778   1.429       .  A
C774        C775   1.439       .  A
C774        C779   1.437       .  S
C775        C776   1.411       .  A
C775        C782   1.454       .  S
C776        C777   1.423       .  A
C777        C778   1.434       .  A
C777        C780   1.447       .  S
C778        C781   1.449       .  S
C779        N786   1.155       .  T
C780        N785   1.157       .  T
C781        N783   1.158       .  T
C782        N784   1.157       .  T
C787        C788   1.389       .  A
C787        C792   1.424       .  A
C788        C789   1.413       .  A
C788        C793   1.454       .  S
C789        C790   1.437       .  A
C789        C796   1.428       .  S
C790        C791   1.418       .  A
C791        C792   1.428       .  A
C791        C794   1.448       .  S
C792        C795   1.450       .  S
C793        N800   1.154       .  T
C794        N799   1.156       .  T
C795        N797   1.157       .  T
C796        N798   1.155       .  T
C801        C802   1.402       .  A
C801        C806   1.414       .  A
C802        C803   1.413       .  A
C802        C807   1.465       .  S
C803        C804   1.428       .  A
C803        C810   1.424       .  S
C804        C805   1.427       .  A
C805        C806   1.434       .  A
C805        C808   1.448       .  S
C806        C809   1.442       .  S
C807        N814   1.157       .  T
C808        N813   1.157       .  T
C809       N1737   1.155       .  T
C810        N812   1.153       .  T
N811       C1735   1.155   1_545  T
C815        C816   1.405       .  A
C815        C820   1.396       .  A
C816        C817   1.402       .  A
C816        C821   1.451       .  S
C817        C818   1.430       .  A
C817        C824   1.449       .  S
C818        C819   1.428       .  A
C819        C820   1.408       .  A
C819        C822   1.430       .  S
C820        C823   1.450       .  S
C821        N828   1.157       .  T
C822        N827   1.154       .  T
C823        N825   1.157       .  T
C824        N826   1.158       .  T
C829        C830   1.429       .  A
C829        C834   1.453       .  A
C830        C831   1.404       .  A
C830        C835   1.437       .  S
C831        C832   1.394       .  A
C831        C838   1.445       .  S
C832        C833   1.374       .  A
C833        C834   1.381       .  A
C833        C836   1.452       .  S
C834        C837   1.449       .  S
C835        N842   1.156       .  T
C836        N841   1.157       .  T
C837        N839   1.158       .  T
C838        N840   1.153       .  T
C843        C844   1.391       .  A
C843        C848   1.394       .  A
C844        C845   1.407       .  A
C844        C849   1.443       .  S
C845        C846   1.432       .  A
C845        C852   1.444       .  S
C846        C847   1.430       .  A
C847        C848   1.402       .  A
C847        C850   1.435       .  S
C848        C851   1.461       .  S
C849        N856   1.153       .  T
C850        N855   1.153       .  T
C851        N853   1.157       .  T
C852        N854   1.157       .  T
C857        C858   1.406       .  A
C857        C862   1.393       .  A
C858        C859   1.406       .  A
C858        C863   1.444       .  S
C859        C860   1.419       .  A
C859        C866   1.442       .  S
C860        C861   1.429       .  A
C861        C862   1.413       .  A
C861        C864   1.423       .  S
C862        C865   1.457       .  S
C863        N870   1.156       .  T
C864        N869   1.149       .  T
C865        N867   1.157       .  T
C866        N868   1.156       .  T
C871        C872   1.414       .  A
C871        C876   1.395       .  A
C872        C873   1.401       .  A
C872        C877   1.450       .  S
C873        C874   1.412       .  A
C873        C880   1.442       .  S
C874        C875   1.421       .  A
C875        C876   1.391       .  A
C875        C878   1.436       .  S
C876        C879   1.459       .  S
C877        N884   1.155       .  T
C878        N883   1.154       .  T
C879        N881   1.158       .  T
C880        N882   1.157       .  T
C885        C886   1.451       .  A
C885        C890   1.433       .  A
C886        C887   1.404       .  A
C886        C891   1.441       .  S
C887        C888   1.380       .  A
C887        C894   1.456       .  S
C888        C889   1.396       .  A
C889        C890   1.400       .  A
C889        C892   1.454       .  S
C890        C893   1.445       .  S
C891        N898   1.157       .  T
C892        N897   1.158       .  T
C893        N895   1.158       .  T
C894        N896   1.156       .  T
C899        C900   1.390       .  A
C899        C904   1.412       .  A
C900        C901   1.393       .  A
C900        C905   1.449       .  S
C901        C902   1.411       .  A
C901        C908   1.430       .  S
C902        C903   1.410       .  A
C903        C904   1.408       .  A
C903        C906   1.443       .  S
C904        C907   1.442       .  S
C905        N912   1.156   1_556  T
C906        N911   1.157       .  T
C907        N909   1.156       .  T
C908        N910   1.153       .  T
C913        C914   1.415       .  A
C913        C918   1.421       .  A
C914        C915   1.406       .  A
C914        C919   1.441       .  S
C915        C916   1.411       .  A
C915        C922   1.444       .  S
C916        C917   1.408       .  A
C917        C918   1.399       .  A
C917        C920   1.457       .  S
C918        C921   1.440       .  S
C919        N926   1.155       .  T
C920        N925   1.157       .  T
C921        N923   1.154       .  T
C922        N924   1.153       .  T
O927        C935   1.266       .  A
O927       Co947   1.898       .  S
O928        C936   1.240       .  A
O928       Co948   1.929       .  S
O929        C937   1.260       .  A
O929       Co949   1.973       .  S
O930        C938   1.276       .  A
O930       Co950   2.012   1_554  S
O931        C937   1.244       .  A
O931       Co948   1.907       .  S
O932        C938   1.258       .  A
O932       Co947   1.942       .  S
O933        C936   1.241       .  A
O933      Co1413   1.935       .  S
O934        C935   1.294       .  A
O934      Co1412   2.083       .  S
C935       C1379   1.492       .  S
C936       C1334   1.463       .  S
C937       C1362   1.435       .  S
C938       C1351   1.450       .  S
O939        C952   1.261       .  A
O939       Co947   2.018       .  S
O940        C953   1.260       .  A
O940       Co948   1.992       .  S
O941        C954   1.260       .  A
O941      Co1412   1.852       .  S
O942        C955   1.281       .  A
O942      Co1413   1.852       .  S
O943        C955   1.291       .  A
O943       Co948   2.036       .  S
O944        C954   1.284       .  A
O944       Co947   2.060       .  S
O945        C952   1.251       .  A
O945       Co950   1.954   1_554  S
O946        C953   1.253       .  A
O946       Co949   1.984       .  S
Co947       O951   1.976   1_554  S
Co948      O1414   2.039       .  S
Co949      O1397   2.064       .  S
Co949      O1404   1.862       .  S
Co949      O1414   1.938       .  S
Co950      O1396   1.998       .  S
Co950      O1405   1.938       .  S
Co950       O951   1.987       .  S
O951      Co1411   1.998       .  S
O951      Co1412   1.977   1_556  S
C952       C1320   1.480       .  S
C953       C1278   1.482       .  S
C954       C1295   1.438       .  S
C955       C1306   1.468       .  S
O956        C964   1.257       .  A
O957        C965   1.282       .  A
O957       Co977   1.936       .  S
O958        C966   1.277       .  A
O958      Co1441   2.086       .  S
O959        C967   1.299       .  A
O959       Co979   2.098       .  S
O960        C966   1.261       .  A
O961        C967   1.278       .  A
O961       Co976   1.898       .  S
O962        C965   1.299       .  A
O962      Co1442   2.090       .  S
O963        C964   1.275       .  A
O963       Co978   2.061       .  S
C964       C1222   1.523       .  S
C965       C1166   1.528       .  S
C966       C1239   1.546       .  S
C967       C1183   1.496       .  S
O968        C981   1.246       .  A
O968       Co976   1.989       .  S
O969        C982   1.292       .  A
O970        C983   1.245       .  A
O970       Co978   1.956       .  S
O971        C984   1.264       .  A
O971      Co1442   2.033       .  S
O972        C984   1.244       .  A
O972       Co977   1.978       .  S
O973        C983   1.281       .  A
O974        C981   1.259       .  A
O974       Co979   2.036       .  S
O975        C982   1.247       .  A
O975      Co1441   1.938       .  S
Co976       O980   1.977   1_554  S
Co977      O1443   2.007       .  S
Co978      O1421   2.070   1_554  S
Co978      O1438   1.946   1_554  S
Co979      O1425   2.082   1_554  S
Co979      O1434   2.028   1_554  S
Co979       O980   2.217   1_554  S
O980      Co1440   1.997       .  S
C981       C1197   1.522       .  S
C982       C1250   1.509       .  S
C983       C1264   1.504       .  S
C984       C1208   1.535       .  S
O985        C993   1.273       .  A
O985      Co1005   2.011   1_554  S
O986        C994   1.243       .  A
O986      Co1006   1.978       .  S
O987        C995   1.285       .  A
O987      Co1007   2.077   1_455  S
O988        C996   1.292       .  A
O988      Co1008   2.091       .  S
O989        C995   1.254       .  A
O989      Co1469   1.972       .  S
O990        C996   1.279       .  A
O990      Co1468   1.951       .  S
O991        C994   1.267       .  A
O991      Co1008   2.054   1_455  S
O992        C993   1.274       .  A
O992      Co1007   2.039       .  S
C993       C1152   1.527       .  S
C994       C1068   1.507       .  S
C995       C1057   1.524       .  S
C996       C1138   1.525       .  S
O997       C1010   1.302       .  A
O997      Co1468   2.129       .  S
O998       C1011   1.282       .  A
O998      Co1469   2.086       .  S
O999       C1012   1.245       .  A
O999      Co1007   1.971       .  S
O1000      C1013   1.263       .  A
O1000     Co1008   1.984   1_455  S
O1001      C1013   1.285       .  A
O1001     Co1006   2.076       .  S
O1002      C1012   1.279       .  A
O1002     Co1005   2.063   1_554  S
O1003      C1010   1.268       .  A
O1003     Co1008   1.936       .  S
O1004      C1011   1.242       .  A
O1004     Co1007   1.938   1_455  S
Co1005     O1453   1.946       .  S
Co1005     O1460   2.117       .  S
Co1005     O1009   2.074   1_656  S
Co1006     O1452   1.973       .  S
Co1006     O1461   2.082       .  S
Co1006     O1472   2.060   1_455  S
Co1007     O1009   2.079   1_655  S
Co1008     O1472   2.078       .  S
O1009     Co1469   2.089       .  S
O1009     Co1471   2.066   1_454  S
C1010      C1127   1.540       .  S
C1011      C1096   1.523       .  S
C1012      C1110   1.522       .  S
C1013      C1085   1.529       .  S
C1014      H1015   1.075       .  S
C1014      C1020   1.554       .  S
C1014      C1019   1.578       .  S
C1014      C1018   1.562       .  S
C1016      H1017   1.101       .  S
C1016      C1022   1.557       .  S
C1016      C1021   1.528       .  S
C1016      C1023   1.582       .  S
C1018      C1021   1.408       .  D
C1018      C1365   1.526       .  S
C1019      C1022   1.403       .  D
C1019      C1211   1.553       .  S
C1020      C1023   1.396       .  D
C1020      C1082   1.572       .  S
C1021      C1376   1.524       .  S
C1022      C1194   1.573       .  S
C1023      C1099   1.532       .  S
C1024      H1025   1.096       .  S
C1024      C1030   1.553       .  S
C1024      C1029   1.585       .  S
C1024      C1028   1.531       .  S
C1026      H1027   1.087       .  S
C1026      C1032   1.549       .  S
C1026      C1031   1.554       .  S
C1026      C1033   1.578       .  S
C1028      C1031   1.398       .  D
C1028      C1348   1.514       .  S
C1029      C1032   1.388       .  D
C1029      C1180   1.540       .  S
C1030      C1033   1.392       .  D
C1030      C1113   1.553       .  S
C1031      C1337   1.499       .  S
C1032      C1169   1.556       .  S
C1033      C1124   1.559       .  S
C1034      H1035   1.088       .  S
C1034      C1040   1.555       .  S
C1034      C1039   1.556       .  S
C1034      C1038   1.565       .  S
C1036      H1037   1.094       .  S
C1036      C1042   1.559       .  S
C1036      C1041   1.542       .  S
C1036      C1043   1.596       .  S
C1038      C1041   1.432       .  D
C1038      C1292   1.531       .  S
C1039      C1042   1.376       .  D
C1039      C1267   1.545       .  S
C1040      C1043   1.374       .  D
C1040      C1054   1.561       .  S
C1041      C1281   1.546       .  S
C1042      C1253   1.552       .  S
C1043      C1071   1.545       .  S
C1044      H1045   1.043       .  S
C1044      C1050   1.567       .  S
C1044      C1049   1.564       .  S
C1044      C1048   1.544       .  S
C1046      H1047   1.084       .  S
C1046      C1052   1.567       .  S
C1046      C1051   1.553       .  S
C1046      C1053   1.569       .  S
C1048      C1051   1.405       .  D
C1048      C1309   1.518       .  S
C1049      C1052   1.406       .  D
C1049      C1236   1.593       .  S
C1050      C1053   1.402       .  D
C1050      C1141   1.555       .  S
C1051      C1323   1.528       .  S
C1052      C1225   1.536       .  S
C1053      C1155   1.573       .  S
C1054      C1055   1.431       .  A
C1054      C1059   1.425       .  A
C1055      C1056   1.416       .  A
C1055      C1060   1.434       .  S
C1056      C1057   1.402       .  A
C1056      C1063   1.457       .  S
C1057      C1058   1.422       .  A
C1058      C1059   1.442       .  A
C1058      C1061   1.448       .  S
C1059      C1062   1.446       .  S
C1060      N1067   1.155       .  T
C1061      N1066   1.157       .  T
C1062      N1064   1.157       .  T
C1063      N1065   1.158       .  T
C1068      C1069   1.419       .  A
C1068      C1073   1.401       .  A
C1069      C1070   1.432       .  A
C1069      C1074   1.443       .  S
C1070      C1071   1.417       .  A
C1070      C1077   1.449       .  S
C1071      C1072   1.427       .  A
C1072      C1073   1.417       .  A
C1072      C1075   1.426       .  S
C1073      C1076   1.458       .  S
C1074      N1081   1.155   1_455  T
C1075      N1080   1.152       .  T
C1076      N1078   1.157       .  T
C1077      N1079   1.157       .  T
C1082      C1083   1.415       .  A
C1082      C1087   1.417       .  A
C1083      C1084   1.422       .  A
C1083      C1088   1.440       .  S
C1084      C1085   1.406       .  A
C1084      C1091   1.441       .  S
C1085      C1086   1.421       .  A
C1086      C1087   1.428       .  A
C1086      C1089   1.436       .  S
C1087      C1090   1.443       .  S
C1088      N1095   1.156       .  T
C1089      N1094   1.153       .  T
C1090      N1092   1.157       .  T
C1091      N1093   1.156       .  T
C1096      C1097   1.422       .  A
C1096      C1101   1.415       .  A
C1097      C1098   1.425       .  A
C1097      C1102   1.446       .  S
C1098      C1099   1.414       .  A
C1098      C1105   1.448       .  S
C1099      C1100   1.428       .  A
C1100      C1101   1.424       .  A
C1100      C1103   1.448       .  S
C1101      C1104   1.449       .  S
C1102      N1109   1.156       .  T
C1103      N1108   1.158       .  T
C1104      N1106   1.157       .  T
C1105      N1107   1.157       .  T
C1110      C1111   1.394       .  A
C1110      C1115   1.427       .  A
C1111      C1112   1.418       .  A
C1111      C1116   1.448       .  S
C1112      C1113   1.427       .  A
C1112      C1119   1.422       .  S
C1113      C1114   1.420       .  A
C1114      C1115   1.434       .  A
C1114      C1117   1.448       .  S
C1115      C1118   1.448       .  S
C1116      N1123   1.155       .  T
C1117      N1122   1.157       .  T
C1118      N1120   1.157       .  T
C1119      N1121   1.149       .  T
C1124      C1125   1.414       .  A
C1124      C1129   1.414       .  A
C1125      C1126   1.418       .  A
C1125      C1130   1.445       .  S
C1126      C1127   1.427       .  A
C1126      C1133   1.448       .  S
C1127      C1128   1.426       .  A
C1128      C1129   1.426       .  A
C1128      C1131   1.438       .  S
C1129      C1132   1.450       .  S
C1130      N1137   1.157       .  T
C1131      N1599   1.153       .  T
C1132      N1134   1.157       .  T
C1133      N1135   1.158       .  T
N1136      C1594   1.155       .  T
C1138      C1139   1.405       .  A
C1138      C1143   1.417       .  A
C1139      C1140   1.420       .  A
C1139      C1144   1.441       .  S
C1140      C1141   1.423       .  A
C1140      C1147   1.437       .  S
C1141      C1142   1.426       .  A
C1142      C1143   1.438       .  A
C1142      C1145   1.447       .  S
C1143      C1146   1.448       .  S
C1144      N1151   1.152       .  T
C1145      N1150   1.157       .  T
C1146      N1611   1.157       .  T
C1147      N1149   1.155       .  T
N1148      C1609   1.157       .  T
C1152      C1153   1.411       .  A
C1152      C1157   1.418       .  A
C1153      C1154   1.429       .  A
C1153      C1158   1.454       .  S
C1154      C1155   1.443       .  A
C1154      C1161   1.443       .  S
C1155      C1156   1.426       .  A
C1156      C1157   1.430       .  A
C1156      C1159   1.448       .  S
C1157      C1160   1.447       .  S
C1158      N1165   1.157       .  T
C1159      N1164   1.157       .  T
C1160      N1162   1.157       .  T
C1161      N1163   1.157       .  T
C1166      C1167   1.416       .  A
C1166      C1171   1.413       .  A
C1167      C1168   1.431       .  A
C1167      C1172   1.439       .  S
C1168      C1169   1.417       .  A
C1168      C1175   1.446       .  S
C1169      C1170   1.428       .  A
C1170      C1171   1.421       .  A
C1170      C1173   1.440       .  S
C1171      C1174   1.447       .  S
C1173      N1178   1.157       .  T
C1174      N1176   1.156       .  T
C1175      N1177   1.157       .  T
C1180      C1181   1.428       .  A
C1180      C1185   1.418       .  A
C1181      C1182   1.403       .  A
C1181      C1186   1.427       .  S
C1182      C1183   1.390       .  A
C1182      C1189   1.455       .  S
C1183      C1184   1.415       .  A
C1184      C1185   1.430       .  A
C1184      C1187   1.439       .  S
C1185      C1188   1.447       .  S
C1186      N1193   1.155       .  T
C1188      N1190   1.157       .  T
C1189      N1191   1.158       .  T
C1194      C1195   1.435       .  A
C1194      C1199   1.434       .  A
C1195      C1196   1.438       .  A
C1195      C1200   1.442       .  S
C1196      C1197   1.411       .  A
C1196      C1203   1.451       .  S
C1197      C1198   1.408       .  A
C1198      C1199   1.424       .  A
C1198      C1201   1.454       .  S
C1199      C1202   1.438       .  S
C1200      N1207   1.155       .  T
C1201      N1206   1.157       .  T
C1202      N1204   1.155       .  T
C1203      N1205   1.157       .  T
C1208      C1209   1.420       .  A
C1208      C1213   1.441       .  A
C1209      C1210   1.412       .  A
C1209      C1214   1.449       .  S
C1210      C1211   1.411       .  A
C1210      C1217   1.439       .  S
C1211      C1212   1.409       .  A
C1212      C1213   1.434       .  A
C1212      C1215   1.445       .  S
C1213      C1216   1.446       .  S
C1214      N1221   1.157       .  T
C1215      N1220   1.157       .  T
C1216      N1218   1.157       .  T
C1217      N1219   1.156       .  T
C1222      C1223   1.416       .  A
C1222      C1227   1.421       .  A
C1223      C1224   1.418       .  A
C1223      C1228   1.442       .  S
C1224      C1225   1.417       .  A
C1224      C1231   1.440       .  S
C1225      C1226   1.423       .  A
C1226      C1227   1.433       .  A
C1226      C1229   1.449       .  S
C1227      C1230   1.447       .  S
C1228      N1235   1.154       .  T
C1229      N1234   1.157       .  T
C1230      N1232   1.157   1_554  T
C1231      N1233   1.153       .  T
C1236      C1237   1.435       .  A
C1236      C1241   1.422       .  A
C1237      C1238   1.431       .  A
C1237      C1242   1.445       .  S
C1238      C1239   1.409       .  A
C1238      C1245   1.443       .  S
C1239      C1240   1.427       .  A
C1240      C1241   1.436       .  A
C1240      C1243   1.445       .  S
C1241      C1244   1.448       .  S
C1242      N1249   1.157       .  T
C1243      N1248   1.158       .  T
C1244      N1246   1.158       .  T
C1245      N1247   1.155       .  T
C1250      C1251   1.388       .  A
C1250      C1255   1.425       .  A
C1251      C1252   1.409       .  A
C1251      C1256   1.450       .  S
C1252      C1253   1.433       .  A
C1252      C1259   1.425       .  S
C1253      C1254   1.422       .  A
C1254      C1255   1.432       .  A
C1254      C1257   1.449       .  S
C1255      C1258   1.450       .  S
C1256      N1263   1.154       .  T
C1257      N1262   1.157       .  T
C1258      N1260   1.157       .  T
C1259      N1261   1.153       .  T
C1264      C1265   1.404       .  A
C1264      C1269   1.412       .  A
C1265      C1266   1.415       .  A
C1265      C1270   1.463       .  S
C1266      C1267   1.431       .  A
C1266      C1273   1.430       .  S
C1267      C1268   1.421       .  A
C1268      C1269   1.428       .  A
C1268      C1271   1.449       .  S
C1269      C1272   1.434       .  S
C1270      N1277   1.158       .  T
C1271      N1276   1.157       .  T
C1273      N1275   1.153       .  T
C1278      C1279   1.404       .  A
C1278      C1283   1.396       .  A
C1279      C1280   1.403       .  A
C1279      C1284   1.450       .  S
C1280      C1281   1.438       .  A
C1280      C1287   1.452       .  S
C1281      C1282   1.437       .  A
C1282      C1283   1.416       .  A
C1282      C1285   1.436       .  S
C1283      C1286   1.444       .  S
C1284      N1291   1.157       .  T
C1285      N1290   1.156       .  T
C1286      N1288   1.156       .  T
C1287      N1289   1.158       .  T
C1292      C1293   1.413       .  A
C1292      C1297   1.452       .  A
C1293      C1294   1.395       .  A
C1293      C1298   1.432       .  S
C1294      C1295   1.392       .  A
C1294      C1301   1.439       .  S
C1295      C1296   1.381       .  A
C1296      C1297   1.387       .  A
C1296      C1299   1.453       .  S
C1297      C1300   1.450       .  S
C1298      N1305   1.153       .  T
C1299      N1304   1.155       .  T
C1300      N1302   1.158       .  T
C1301      N1303   1.151       .  T
C1306      C1307   1.411       .  A
C1306      C1311   1.395       .  A
C1307      C1308   1.394       .  A
C1307      C1312   1.447       .  S
C1308      C1309   1.417       .  A
C1308      C1315   1.446       .  S
C1309      C1310   1.443       .  A
C1310      C1311   1.399       .  A
C1310      C1313   1.439       .  S
C1311      C1314   1.458       .  S
C1312      N1319   1.153       .  T
C1313      N1318   1.156       .  T
C1314      N1316   1.156       .  T
C1315      N1317   1.157       .  T
C1320      C1321   1.407       .  A
C1320      C1325   1.397       .  A
C1321      C1322   1.408       .  A
C1321      C1326   1.442       .  S
C1322      C1323   1.425       .  A
C1322      C1329   1.444       .  S
C1323      C1324   1.429       .  A
C1324      C1325   1.406       .  A
C1324      C1327   1.430       .  S
C1325      C1328   1.455       .  S
C1326      N1333   1.155       .  T
C1327      N1332   1.153       .  T
C1328      N1330   1.157       .  T
C1329      N1331   1.158       .  T
C1334      C1335   1.399       .  A
C1334      C1339   1.401       .  A
C1335      C1336   1.399       .  A
C1335      C1340   1.448       .  S
C1336      C1337   1.419       .  A
C1336      C1343   1.444       .  S
C1337      C1338   1.417       .  A
C1338      C1339   1.391       .  A
C1338      C1341   1.436       .  S
C1339      C1342   1.460       .  S
C1340      N1347   1.155       .  T
C1341      N1346   1.152       .  T
C1342      N1344   1.158       .  T
C1343      N1345   1.157       .  T
C1348      C1349   1.445       .  A
C1348      C1353   1.425       .  A
C1349      C1350   1.407       .  A
C1349      C1354   1.445       .  S
C1350      C1351   1.386       .  A
C1350      C1357   1.446       .  S
C1351      C1352   1.390       .  A
C1352      C1353   1.388       .  A
C1352      C1355   1.446       .  S
C1353      C1356   1.446       .  S
C1354      N1361   1.157       .  T
C1355      N1360   1.155       .  T
C1356      N1358   1.158       .  T
C1357      N1359   1.153   1_554  T
C1362      C1363   1.386       .  A
C1362      C1367   1.395       .  A
C1363      C1364   1.396       .  A
C1363      C1368   1.457       .  S
C1364      C1365   1.436       .  A
C1364      C1371   1.435       .  S
C1365      C1366   1.424       .  A
C1366      C1367   1.389       .  A
C1366      C1369   1.447       .  S
C1367      C1370   1.446       .  S
C1368      N1375   1.157       .  T
C1369      N1374   1.157       .  T
C1370      N1372   1.155       .  T
C1371      N1373   1.155       .  T
C1376      C1377   1.420       .  A
C1376      C1381   1.427       .  A
C1377      C1378   1.412       .  A
C1377      C1382   1.444       .  S
C1378      C1379   1.412       .  A
C1378      C1385   1.448       .  S
C1379      C1380   1.411       .  A
C1380      C1381   1.408       .  A
C1380      C1383   1.455       .  S
C1381      C1384   1.446       .  S
C1382      N1389   1.156       .  T
C1383      N1388   1.157       .  T
C1384      N1386   1.156       .  T
C1385      N1387   1.155       .  T
O1390      C1398   1.271       .  A
O1390     Co1410   1.852       .  S
O1391      C1399   1.249       .  A
O1391     Co1411   1.936       .  S
O1392      C1400   1.252       .  A
O1392     Co1412   2.003   1_556  S
O1393      C1401   1.270       .  A
O1393     Co1413   1.996       .  S
O1394      C1400   1.235       .  A
O1394     Co1411   1.943       .  S
O1395      C1401   1.258       .  A
O1395     Co1410   1.939       .  S
O1396      C1399   1.269       .  A
O1397      C1398   1.298       .  A
C1398      C1842   1.474       .  S
C1399      C1797   1.465       .  S
C1400      C1825   1.461       .  S
C1401      C1814   1.447       .  S
O1402      C1415   1.267       .  A
O1402     Co1410   2.003       .  S
O1403      C1416   1.282       .  A
O1403     Co1411   2.057       .  S
O1404      C1417   1.253       .  A
O1405      C1418   1.253       .  A
O1406      C1418   1.261       .  A
O1406     Co1411   1.992       .  S
O1407      C1417   1.273       .  A
O1407     Co1410   2.054       .  S
O1408      C1415   1.262       .  A
O1408     Co1413   1.966       .  S
O1409      C1416   1.257       .  A
O1409     Co1412   1.956   1_556  S
Co1410     O1414   1.965       .  S
Co1413     O1414   1.895       .  S
C1415      C1783   1.472       .  S
C1416      C1741   1.472       .  S
C1417      C1758   1.432       .  S
C1418      C1769   1.449       .  S
O1419      C1427   1.259       .  A
O1420      C1428   1.285       .  A
O1420     Co1440   1.939       .  S
O1421      C1429   1.279       .  A
O1422      C1430   1.299       .  A
O1422     Co1442   2.100       .  S
O1423      C1429   1.265       .  A
O1424      C1430   1.280       .  A
O1424     Co1439   1.908       .  S
O1425      C1428   1.296       .  A
O1426      C1427   1.274       .  A
O1426     Co1441   2.069       .  S
C1427      C1685   1.531       .  S
C1428      C1629   1.522       .  S
C1429      C1702   1.549       .  S
C1430      C1646   1.502       .  S
O1431      C1444   1.246       .  A
O1431     Co1439   2.001       .  S
O1432      C1445   1.290       .  A
O1433      C1446   1.248       .  A
O1433     Co1441   1.962       .  S
O1434      C1447   1.261       .  A
O1435      C1447   1.244       .  A
O1435     Co1440   1.983       .  S
O1436      C1446   1.278       .  A
O1437      C1444   1.262       .  A
O1437     Co1442   2.057       .  S
O1438      C1445   1.246       .  A
Co1439     O1443   1.990       .  S
Co1442     O1443   2.227       .  S
C1444      C1660   1.537       .  S
C1445      C1713   1.500       .  S
C1446      C1727   1.503       .  S
C1447      C1671   1.536       .  S
O1448      C1456   1.275       .  A
O1448     Co1468   2.023       .  S
O1449      C1457   1.250       .  A
O1449     Co1469   1.997   1_556  S
O1450      C1458   1.285       .  A
O1450     Co1470   2.084   1_455  S
O1451      C1459   1.295       .  A
O1451     Co1471   2.106       .  S
O1452      C1458   1.250       .  A
O1453      C1459   1.273       .  A
O1454      C1457   1.270       .  A
O1454     Co1471   2.041   1_455  S
O1455      C1456   1.274       .  A
O1455     Co1470   2.041       .  S
C1456      C1615   1.539       .  S
C1457      C1531   1.522       .  S
C1458      C1520   1.522       .  S
C1459      C1601   1.525       .  S
O1460      C1473   1.299       .  A
O1461      C1474   1.279       .  A
O1462      C1475   1.246       .  A
O1462     Co1470   1.968       .  S
O1463      C1476   1.260       .  A
O1463     Co1471   1.999   1_455  S
O1464      C1476   1.286       .  A
O1464     Co1469   2.088   1_556  S
O1465      C1475   1.288       .  A
O1465     Co1468   2.081       .  S
O1466      C1473   1.267       .  A
O1466     Co1471   1.932       .  S
O1467      C1474   1.243       .  A
O1467     Co1470   1.949   1_455  S
Co1468     O1472   2.066       .  S
Co1470     O1472   2.079       .  S
C1473      C1590   1.531       .  S
C1474      C1559   1.521       .  S
C1475      C1573   1.533       .  S
C1476      C1548   1.534       .  S
C1477      H1478   1.078       .  S
C1477      C1483   1.558       .  S
C1477      C1482   1.579       .  S
C1477      C1481   1.556       .  S
C1479      H1480   1.101       .  S
C1479      C1485   1.565       .  S
C1479      C1484   1.528       .  S
C1479      C1486   1.580       .  S
C1481      C1484   1.399       .  D
C1481      C1828   1.529       .  S
C1482      C1485   1.413       .  D
C1482      C1674   1.562       .  S
C1483      C1486   1.394       .  D
C1483      C1545   1.564       .  S
C1484      C1839   1.499       .  S
C1485      C1657   1.583       .  S
C1486      C1562   1.541       .  S
C1487      H1488   1.094       .  S
C1487      C1493   1.547       .  S
C1487      C1492   1.583       .  S
C1487      C1491   1.535       .  S
C1489      H1490   1.087       .  S
C1489      C1495   1.550       .  S
C1489      C1494   1.550       .  S
C1489      C1496   1.573       .  S
C1491      C1494   1.403       .  D
C1491      C1811   1.519       .  S
C1492      C1495   1.388       .  D
C1492      C1643   1.543       .  S
C1493      C1496   1.393       .  D
C1493      C1576   1.560       .  S
C1494      C1800   1.502       .  S
C1495      C1632   1.552       .  S
C1496      C1587   1.545       .  S
C1497      H1498   1.082       .  S
C1497      C1503   1.563       .  S
C1497      C1502   1.559       .  S
C1497      C1501   1.565       .  S
C1499      H1500   1.104       .  S
C1499      C1505   1.573       .  S
C1499      C1504   1.535       .  S
C1499      C1506   1.597       .  S
C1501      C1504   1.428       .  D
C1501      C1755   1.536       .  S
C1502      C1505   1.370       .  D
C1502      C1730   1.554       .  S
C1503      C1506   1.379       .  D
C1503      C1517   1.558       .  S
C1504      C1744   1.522       .  S
C1505      C1716   1.546       .  S
C1506      C1534   1.559       .  S
C1507      H1508   1.093       .  S
C1507      C1513   1.578       .  S
C1507      C1512   1.566       .  S
C1507      C1511   1.556       .  S
C1509      H1510   1.090       .  S
C1509      C1515   1.571       .  S
C1509      C1514   1.538       .  S
C1509      C1516   1.575       .  S
C1511      C1514   1.388       .  D
C1511      C1772   1.509       .  S
C1512      C1515   1.406       .  D
C1512      C1699   1.589       .  S
C1513      C1516   1.409       .  D
C1513      C1604   1.554       .  S
C1514      C1786   1.519       .  S
C1515      C1688   1.544       .  S
C1516      C1618   1.584       .  S
C1517      C1518   1.431       .  A
C1517      C1522   1.428       .  A
C1518      C1519   1.408       .  A
C1518      C1523   1.435       .  S
C1519      C1520   1.396       .  A
C1519      C1526   1.457       .  S
C1520      C1521   1.423       .  A
C1521      C1522   1.445       .  A
C1521      C1524   1.447       .  S
C1522      C1525   1.447       .  S
C1523      N1530   1.157       .  T
C1524      N1529   1.158       .  T
C1525      N1527   1.157       .  T
C1526      N1528   1.158       .  T
C1531      C1532   1.422       .  A
C1531      C1536   1.398       .  A
C1532      C1533   1.440       .  A
C1532      C1537   1.447       .  S
C1533      C1534   1.422       .  A
C1533      C1540   1.446       .  S
C1534      C1535   1.429       .  A
C1535      C1536   1.420       .  A
C1535      C1538   1.425       .  S
C1536      C1539   1.454       .  S
C1537      N1544   1.157       .  T
C1538      N1543   1.151       .  T
C1539      N1541   1.155       .  T
C1540      N1542   1.157       .  T
C1545      C1546   1.416       .  A
C1545      C1550   1.411       .  A
C1546      C1547   1.433       .  A
C1546      C1551   1.449       .  S
C1547      C1548   1.426       .  A
C1547      C1554   1.438       .  S
C1548      C1549   1.419       .  A
C1549      C1550   1.418       .  A
C1549      C1552   1.443       .  S
C1550      C1553   1.442       .  S
C1551      N1558   1.157       .  T
C1552      N1557   1.156       .  T
C1553      N1555   1.156       .  T
C1554      N1556   1.154   1_556  T
C1559      C1560   1.423       .  A
C1559      C1564   1.412       .  A
C1560      C1561   1.430       .  A
C1560      C1565   1.448       .  S
C1561      C1562   1.418       .  A
C1561      C1568   1.445       .  S
C1562      C1563   1.429       .  A
C1563      C1564   1.424       .  A
C1563      C1566   1.442       .  S
C1564      C1567   1.447       .  S
C1565      N1572   1.157       .  T
C1566      N1571   1.154       .  T
C1567      N1569   1.156       .  T
C1568      N1570   1.157       .  T
C1573      C1574   1.396       .  A
C1573      C1578   1.431       .  A
C1574      C1575   1.423       .  A
C1574      C1579   1.445       .  S
C1575      C1576   1.426       .  A
C1575      C1582   1.421       .  S
C1576      C1577   1.420       .  A
C1577      C1578   1.436       .  A
C1577      C1580   1.448       .  S
C1578      C1581   1.448       .  S
C1579      N1586   1.154       .  T
C1580      N1585   1.157       .  T
C1581      N1583   1.157       .  T
C1582      N1584   1.149       .  T
C1587      C1588   1.407       .  A
C1587      C1592   1.411       .  A
C1588      C1589   1.421       .  A
C1588      C1593   1.444       .  S
C1589      C1590   1.431       .  A
C1589      C1596   1.446       .  S
C1590      C1591   1.424       .  A
C1591      C1592   1.414       .  A
C1591      C1594   1.442       .  S
C1592      C1595   1.449       .  S
C1593      N1600   1.157       .  T
C1595      N1597   1.157       .  T
C1596      N1598   1.157       .  T
C1601      C1602   1.410       .  A
C1601      C1606   1.419       .  A
C1602      C1603   1.422       .  A
C1602      C1607   1.444       .  S
C1603      C1604   1.424       .  A
C1603      C1610   1.433       .  S
C1604      C1605   1.427       .  A
C1605      C1606   1.438       .  A
C1605      C1608   1.448       .  S
C1606      C1609   1.447       .  S
C1607      N1614   1.153       .  T
C1608      N1613   1.157       .  T
C1610      N1612   1.152       .  T
C1615      C1616   1.411       .  A
C1615      C1620   1.423       .  A
C1616      C1617   1.429       .  A
C1616      C1621   1.450       .  S
C1617      C1618   1.442       .  A
C1617      C1624   1.443       .  S
C1618      C1619   1.430       .  A
C1619      C1620   1.439       .  A
C1619      C1622   1.448       .  S
C1620      C1623   1.447       .  S
C1621      N1628   1.155       .  T
C1622      N1627   1.157       .  T
C1623      N1625   1.157       .  T
C1624      N1626   1.157       .  T
C1629      C1630   1.416       .  A
C1629      C1634   1.411       .  A
C1630      C1631   1.428       .  A
C1630      C1635   1.440       .  S
C1631      C1632   1.418       .  A
C1631      C1638   1.447       .  S
C1632      C1633   1.428       .  A
C1633      C1634   1.420       .  A
C1633      C1636   1.439       .  S
C1634      C1637   1.450       .  S
C1636      N1641   1.157       .  T
C1637      N1639   1.157       .  T
C1638      N1640   1.157       .  T
C1643      C1644   1.428       .  A
C1643      C1648   1.422       .  A
C1644      C1645   1.404       .  A
C1644      C1649   1.427       .  S
C1645      C1646   1.390       .  A
C1645      C1652   1.454       .  S
C1646      C1647   1.416       .  A
C1647      C1648   1.434       .  A
C1647      C1650   1.442       .  S
C1648      C1651   1.446       .  S
C1649      N1656   1.155       .  T
C1651      N1653   1.157       .  T
C1652      N1654   1.157       .  T
C1657      C1658   1.437       .  A
C1657      C1662   1.436       .  A
C1658      C1659   1.442       .  A
C1658      C1663   1.443       .  S
C1659      C1660   1.413       .  A
C1659      C1666   1.448       .  S
C1660      C1661   1.410       .  A
C1661      C1662   1.431       .  A
C1661      C1664   1.453       .  S
C1662      C1665   1.437       .  S
C1663      N1670   1.155       .  T
C1664      N1669   1.157       .  T
C1665      N1667   1.155       .  T
C1666      N1668   1.157       .  T
C1671      C1672   1.418       .  A
C1671      C1676   1.434       .  A
C1672      C1673   1.422       .  A
C1672      C1677   1.452       .  S
C1673      C1674   1.431       .  A
C1673      C1680   1.445       .  S
C1674      C1675   1.414       .  A
C1675      C1676   1.431       .  A
C1675      C1678   1.449       .  S
C1676      C1679   1.445       .  S
C1677      N1684   1.157       .  T
C1678      N1683   1.157       .  T
C1679      N1681   1.156       .  T
C1680      N1682   1.158       .  T
C1685      C1686   1.424       .  A
C1685      C1690   1.420       .  A
C1686      C1687   1.424       .  A
C1686      C1691   1.447       .  S
C1687      C1688   1.420       .  A
C1687      C1694   1.444       .  S
C1688      C1689   1.424       .  A
C1689      C1690   1.432       .  A
C1689      C1692   1.449       .  S
C1690      C1693   1.446       .  S
C1691      N1698   1.157       .  T
C1692      N1697   1.157       .  T
C1693      N1695   1.157       .  T
C1694      N1696   1.155       .  T
C1699      C1700   1.449       .  A
C1699      C1704   1.423       .  A
C1700      C1701   1.441       .  A
C1700      C1705   1.440       .  S
C1701      C1702   1.412       .  A
C1701      C1708   1.453       .  S
C1702      C1703   1.421       .  A
C1703      C1704   1.430       .  A
C1703      C1706   1.445       .  S
C1704      C1707   1.448       .  S
C1705      N1712   1.156       .  T
C1706      N1711   1.157       .  T
C1707      N1709   1.157       .  T
C1708      N1710   1.157       .  T
C1713      C1714   1.386       .  A
C1713      C1718   1.423       .  A
C1714      C1715   1.404       .  A
C1714      C1719   1.452       .  S
C1715      C1716   1.439       .  A
C1715      C1722   1.429       .  S
C1716      C1717   1.419       .  A
C1717      C1718   1.429       .  A
C1717      C1720   1.447       .  S
C1718      C1721   1.449       .  S
C1719      N1726   1.154       .  T
C1720      N1725   1.156       .  T
C1721      N1723   1.157       .  T
C1722      N1724   1.157       .  T
C1727      C1728   1.402       .  A
C1727      C1732   1.412       .  A
C1728      C1729   1.417       .  A
C1728      C1733   1.464       .  S
C1729      C1730   1.431       .  A
C1729      C1736   1.426       .  S
C1730      C1731   1.427       .  A
C1731      C1732   1.432       .  A
C1731      C1734   1.447       .  S
C1732      C1735   1.442       .  S
C1733      N1740   1.157       .  T
C1734      N1739   1.157       .  T
C1736      N1738   1.153       .  T
C1741      C1742   1.406       .  A
C1741      C1746   1.397       .  A
C1742      C1743   1.402       .  A
C1742      C1747   1.450       .  S
C1743      C1744   1.429       .  A
C1743      C1750   1.448       .  S
C1744      C1745   1.424       .  A
C1745      C1746   1.410       .  A
C1745      C1748   1.428       .  S
C1746      C1749   1.450       .  S
C1747      N1754   1.157       .  T
C1748      N1753   1.153       .  T
C1749      N1751   1.158       .  T
C1750      N1752   1.158       .  T
C1755      C1756   1.427       .  A
C1755      C1760   1.455       .  A
C1756      C1757   1.402       .  A
C1756      C1761   1.435       .  S
C1757      C1758   1.393       .  A
C1757      C1764   1.446       .  S
C1758      C1759   1.374       .  A
C1759      C1760   1.380       .  A
C1759      C1762   1.452       .  S
C1760      C1763   1.451       .  S
C1761      N1768   1.156       .  T
C1762      N1767   1.156       .  T
C1763      N1765   1.158       .  T
C1764      N1766   1.154       .  T
C1769      C1770   1.388       .  A
C1769      C1774   1.391       .  A
C1770      C1771   1.403       .  A
C1770      C1775   1.440       .  S
C1771      C1772   1.430       .  A
C1771      C1778   1.444       .  S
C1772      C1773   1.428       .  A
C1773      C1774   1.397       .  A
C1773      C1776   1.435       .  S
C1774      C1777   1.461       .  S
C1775      N1782   1.152       .  T
C1776      N1781   1.153       .  T
C1777      N1779   1.157       .  T
C1778      N1780   1.157       .  T
C1783      C1784   1.403       .  A
C1783      C1788   1.391       .  A
C1784      C1785   1.401       .  A
C1784      C1789   1.446       .  S
C1785      C1786   1.417       .  A
C1785      C1792   1.439       .  S
C1786      C1787   1.428       .  A
C1787      C1788   1.411       .  A
C1787      C1790   1.425       .  S
C1788      C1791   1.455       .  S
C1789      N1796   1.157       .  T
C1790      N1795   1.149       .  T
C1791      N1793   1.157       .  T
C1792      N1794   1.155       .  T
C1797      C1798   1.411       .  A
C1797      C1802   1.394       .  A
C1798      C1799   1.402       .  A
C1798      C1803   1.447       .  S
C1799      C1800   1.416       .  A
C1799      C1806   1.445       .  S
C1800      C1801   1.422       .  A
C1801      C1802   1.394       .  A
C1801      C1804   1.436       .  S
C1802      C1805   1.459       .  S
C1803      N1810   1.154       .  T
C1804      N1809   1.154       .  T
C1805      N1807   1.158       .  T
C1806      N1808   1.158       .  T
C1811      C1812   1.443       .  A
C1811      C1816   1.430       .  A
C1812      C1813   1.399       .  A
C1812      C1817   1.443       .  S
C1813      C1814   1.381       .  A
C1813      C1820   1.448       .  S
C1814      C1815   1.396       .  A
C1815      C1816   1.398       .  A
C1815      C1818   1.453       .  S
C1816      C1819   1.442       .  S
C1817      N1824   1.156       .  T
C1818      N1823   1.157       .  T
C1819      N1821   1.156       .  T
C1820      N1822   1.152       .  T
C1825      C1826   1.391       .  A
C1825      C1830   1.412       .  A
C1826      C1827   1.391       .  A
C1826      C1831   1.447       .  S
C1827      C1828   1.409       .  A
C1827      C1834   1.433       .  S
C1828      C1829   1.413       .  A
C1829      C1830   1.407       .  A
C1829      C1832   1.444       .  S
C1830      C1833   1.443       .  S
C1831      N1838   1.157   1_556  T
C1832      N1837   1.157       .  T
C1833      N1835   1.156       .  T
C1834      N1836   1.153       .  T
C1839      C1840   1.417       .  A
C1839      C1844   1.418       .  A
C1840      C1841   1.407       .  A
C1840      C1845   1.442       .  S
C1841      C1842   1.412       .  A
C1841      C1848   1.446       .  S
C1842      C1843   1.406       .  A
C1843      C1844   1.393       .  A
C1843      C1846   1.456       .  S
C1844      C1847   1.441       .  S
C1845      N1852   1.155       .  T
C1846      N1851   1.157       .  T
C1847      N1849   1.154       .  T
C1848      N1850   1.155       .  T
