geometry optimzed in LAMMPS
_audit_creation_date              2020-11-30 
_audit_creation_method            'lammps2cif' 
_symmetry_space_group_name_H-M    'P1' 
_symmetry_Int_Tables_number       1 
_symmetry_cell_setting            triclinic 
loop_ 
_symmetry_equiv_pos_as_xyz 
  x,y,z 
_cell_length_a                    39.11169806 
_cell_length_b                    38.00760806079166 
_cell_length_c                    38.652340862551036 
_cell_angle_alpha                 90.16089111399506 
_cell_angle_beta                  89.8958829916948 
_cell_angle_gamma                 90.28582289587175 
loop_ 
_atom_site_label 
_atom_site_type_symbol 
_atom_site_fract_x 
_atom_site_fract_y 
_atom_site_fract_z 
_atom_site_charge 
C1          C  0.41979935  0.42642436  0.06428649     0.42400
N2          N  0.43908704  0.45964028  0.02468245     0.01300
C3          C  0.59991418  0.45874533  0.45140660    -0.06600
H4          H  0.59642109  0.48205719  0.09327256     0.06800
C5          C  0.52873025  0.59615672  0.06737923    -0.06900
Co6        Co  0.50943663  0.43892533  0.00458209     0.74200
N7          N  0.55831889  0.47105901  0.05447253    -0.26100
Co8        Co  0.56592081  0.50425585  0.50906078     0.74100
C9          C  0.55526947  0.58562140  0.09184866     0.42500
N10         N  0.45591690  0.56389423  0.02438682     0.00900
N11         N  0.55330925  0.54843623  0.05014032     0.01000
N12         N  0.56275239  0.41281202  0.44902679    -0.46900
H13         H  0.46929341  0.39439373  0.06706032     0.06800
N14         N  0.53674653  0.44471946  0.05005646     0.01300
N15         N  0.56847878  0.54129159  0.46998349     0.01100
C16         C  0.58507137  0.57308802  0.42782632     0.42700
N17         N  0.43432037  0.53743204  0.02026693    -0.25500
C18         C  0.47788540  0.40552955  0.43325415    -0.06500
N19         N  0.41146363  0.45350059  0.04359637    -0.46600
N20         N  0.59450158  0.54660098  0.44874876    -0.46900
C21         C  0.44947527  0.41588580  0.41114653     0.42400
N22         N  0.55273120  0.43698470  0.47138358     0.01300
N23         N  0.44711143  0.52946850  0.45024798    -0.25600
N24         N  0.46421327  0.43779123  0.03165066    -0.26100
N25         N  0.46862306  0.55613517  0.45289056     0.01000
H26         H  0.40612791  0.51773316  0.41480241     0.06800
H27         H  0.53556385  0.60576896  0.42881136     0.06900
N28         N  0.57411424  0.46384843  0.47366233    -0.26100
N29         N  0.52929312  0.57134596  0.04259750    -0.25700
N30         N  0.45350869  0.45219332  0.45328472     0.01300
C31         C  0.56202209  0.43302000  0.09773107     0.42700
C32         C  0.40716120  0.54248792  0.04081312    -0.07000
N33         N  0.54298489  0.56317610  0.46466413    -0.25700
H34         H  0.51251187  0.61912215  0.06766877     0.06900
N35         N  0.53867539  0.42106640  0.07490615    -0.46900
H36         H  0.38526389  0.52515613  0.04307588     0.06900
C37         C  0.43897849  0.56759894  0.40800869     0.42600
C38         C  0.45439337  0.41572706  0.05654275    -0.06500
Co39       Co  0.44481486  0.49693389  0.98591200     0.73800
N40         N  0.44513357  0.58722616  0.04718752    -0.46700
C41         C  0.59209179  0.42500809  0.43532558     0.42800
N42         N  0.43508709  0.44445909  0.42567299    -0.46600
Co43       Co  0.49981577  0.56189589  0.49566732     0.73900
C44         C  0.55111251  0.58449810  0.43844370    -0.07000
C45         C  0.57529183  0.46613876  0.08408414    -0.06500
N46         N  0.47854956  0.42975214  0.45851401    -0.26100
N47         N  0.56960710  0.55613367  0.07908950    -0.46800
H48         H  0.62184663  0.47580907  0.44791658     0.06800
C49         C  0.42756631  0.53412228  0.42230186    -0.06900
Cl50       Cl  0.50534160  0.50273364  0.00085161    -0.49900
C51         C  0.41472126  0.57535183  0.05877649     0.42600
H52         H  0.49434597  0.38282657  0.43135596     0.06800
N53         N  0.46422618  0.57989601  0.42846119    -0.46700
C54         C  0.57214235  0.92076971  0.08109653     0.42400
N55         N  0.55590043  0.95745947  0.04205628     0.01300
C56         C  0.40895822  0.05955949  0.04099672    -0.06600
H57         H  0.38395502  0.93418255  0.02673961     0.06800
C58         C  0.45678436  0.93984247  0.40766347    -0.06900
Co59       Co  0.49354987  0.99775215  0.06345944     0.74200
N60         N  0.43220046  0.96086134  0.03469350    -0.26100
Co61       Co  0.43520939  0.99893553  0.99566732     0.74100
C62         C  0.42386927  0.92424492  0.41758655     0.42500
N63         N  0.54149384  0.96386549  0.43827286     0.00900
N64         N  0.43922165  0.96200811  0.45611376     0.01000
N65         N  0.44597992  0.05884868  0.08573120    -0.46900
H66         H  0.52512420  0.93359374  0.11510643     0.06800
N67         N  0.45432581  0.96056832  0.06048576     0.01300
N68         N  0.43791934  0.03831496  0.45511971     0.01100
C69         C  0.42202575  0.07316000  0.41410729     0.42700
N70         N  0.56365245  0.96408314  0.46400948    -0.25500
C71         C  0.54190055  0.05731267  0.09024157    -0.06500
N72         N  0.58070334  0.93565360  0.05060560    -0.46600
N73         N  0.41235524  0.05854571  0.44459810    -0.46900
C74         C  0.57547419  0.07104072  0.08002645     0.42400
N75         N  0.45566333  0.03692593  0.06072190     0.01300
N76         N  0.56235931  0.03974221  0.46554950    -0.25600
N77         N  0.53136442  0.95874191  0.06553621    -0.26100
N78         N  0.54078746  0.04018426  0.43937731     0.01000
H79         H  0.61000447  0.06550828  0.47565530     0.06800
H80         H  0.47195309  0.06317535  0.38381142     0.06900
N81         N  0.43399945  0.03671405  0.03457854    -0.26100
N82         N  0.46422521  0.96282927  0.43307346    -0.25700
N83         N  0.55823405  0.03360042  0.04215621     0.01300
C84         C  0.41568250  0.92330457  0.07565522     0.42700
C85         C  0.58936579  0.94211828  0.45607784    -0.07000
N86         N  0.46370484  0.03838248  0.43301426    -0.25700
H87         H  0.47128931  0.93647804  0.38404564     0.06900
N88         N  0.44511417  0.93895158  0.08565437    -0.46900
H89         H  0.61264573  0.93923270  0.47084616     0.06900
C90         C  0.57958006  0.07834968  0.42621160     0.42600
C91         C  0.53918385  0.93624695  0.09113605    -0.06500
Co92       Co  0.55975131  0.99538359  0.00350542     0.73800
N93         N  0.55113133  0.94322569  0.41240648    -0.46700
C94         C  0.41680802  0.07466389  0.07493979     0.42800
N95         N  0.58398117  0.05474554  0.05025177    -0.46600
Co96       Co  0.50267499  0.00134748  0.43564985     0.73900
C97         C  0.45636483  0.05995828  0.40670975    -0.07000
C98         C  0.40703116  0.93774810  0.04175366    -0.06500
N99         N  0.53330800  0.03442659  0.06521885    -0.26100
N100        N  0.41457132  0.93963182  0.44765010    -0.46800
H101        H  0.38634620  0.06177768  0.02522201     0.06800
C102        C  0.58737332  0.06301788  0.45984023    -0.06900
Cl103      Cl  0.49755386  0.99749595  0.99965757    -0.49900
C104        C  0.58106563  0.92835841  0.42160843     0.42600
H105        H  0.52781105  0.06151519  0.11398897     0.06800
N106        N  0.55053801  0.06247785  0.41489123    -0.46700
C107        C  0.92425390  0.41696372  0.07717518     0.42400
N108        N  0.96052156  0.43534670  0.03932981     0.01300
C109        C  0.05749359  0.58935297  0.04270255    -0.06600
H110        H  0.93690674  0.61426077  0.02794602     0.06800
C111        C  0.94177331  0.54074627  0.40586494    -0.06900
Co112      Co  0.99768883  0.50070166  0.06214646     0.74200
N113        N  0.96158377  0.56399742  0.03427665    -0.26100
Co114      Co  0.99948477  0.56191658  0.99543864     0.74100
C115        C  0.92722794  0.57486596  0.41567981     0.42500
N116        N  0.96115106  0.45313297  0.43571435     0.00900
N117        N  0.96264769  0.55798948  0.45491020     0.01000
N118        N  0.05543214  0.55012153  0.08639338    -0.46900
H119        H  0.93507392  0.46523505  0.11220093     0.06800
N120        N  0.96094258  0.54065692  0.05960558     0.01300
N121        N  0.03705831  0.55697255  0.45751247     0.01100
C122        C  0.07562123  0.57256889  0.42063984     0.42700
N123        N  0.95993542  0.42966084  0.46087530    -0.25500
C124        C  0.05690725  0.45355307  0.08901108    -0.06500
N125        N  0.93972201  0.40897137  0.04699841    -0.46600
N126        N  0.05937990  0.58226291  0.45004470    -0.46900
C127        C  0.07106966  0.41913005  0.07989263     0.42400
N128        N  0.03499390  0.54055992  0.06064146     0.01300
N129        N  0.03388071  0.42856659  0.46361207    -0.25600
N130        N  0.96051324  0.46046247  0.06300687    -0.26100
N131        N  0.03525168  0.45136698  0.43789544     0.01000
H132        H  0.05663483  0.37784838  0.47158136     0.06800
H133        H  0.06477335  0.52388534  0.38661307     0.06900
N134        N  0.03537066  0.56350438  0.03507432    -0.26100
N135        N  0.96335287  0.53252123  0.43162041    -0.25700
N136        N  0.03473289  0.43498046  0.04106924     0.01300
C137        C  0.92563503  0.58083375  0.07633550     0.42700
C138        C  0.93641770  0.40503071  0.45241878    -0.07000
N139        N  0.03711815  0.53129170  0.43437547    -0.25700
H140        H  0.93856359  0.52585296  0.38220256     0.06900
N141        N  0.94032643  0.55003578  0.08526773    -0.46900
H142        H  0.93137061  0.38119491  0.46681076     0.06900
C143        C  0.06930607  0.40977591  0.42274938     0.42600
C144        C  0.93818838  0.45133200  0.08797927    -0.06500
Co145      Co  0.99800855  0.43303375  0.00148495     0.73800
N146        N  0.94011217  0.44540907  0.40989737    -0.46700
C147        C  0.07089930  0.58059069  0.07692901     0.42800
N148        N  0.05595414  0.40932749  0.04986779    -0.46600
Co149      Co  0.99930002  0.49200136  0.43458683     0.73900
C150        C  0.06064319  0.53878544  0.41011961    -0.07000
C151        C  0.93967926  0.59003652  0.04226275    -0.06500
N152        N  0.03447686  0.46092093  0.06388942    -0.26100
N153        N  0.94177473  0.58382232  0.44618395    -0.46800
H154        H  0.06082431  0.61304387  0.02763157     0.06800
C155        C  0.05498577  0.40184289  0.45671213    -0.06900
Cl156      Cl  0.99873820  0.49740813  0.99857337    -0.49900
C157        C  0.92331323  0.41544728  0.41832635     0.42600
H158        H  0.06062609  0.46899228  0.11225779     0.06800
N159        N  0.05576844  0.44076814  0.41261078    -0.46700
C160        C  0.25153641  0.26019889  0.21473074     0.45400
H161        H  0.24853863  0.26140273  0.18619161    -0.03600
C162        C  0.25936056  0.25690303  0.28122142     0.45500
H163        H  0.26309629  0.25504407  0.30963201    -0.03600
C164        C  0.27796196  0.28659310  0.22877101    -0.17300
C165        C  0.21858661  0.26866179  0.23494254    -0.17000
C166        C  0.26456413  0.22412826  0.22726223    -0.17400
C167        C  0.28257459  0.28444871  0.26385665    -0.17400
C168        C  0.22290330  0.26739952  0.27034652    -0.17000
C169        C  0.26809110  0.22237067  0.26264632    -0.17300
C170        C  0.73933278  0.24820654  0.21376549     0.45400
H171        H  0.73448298  0.24591256  0.18559288    -0.03600
C172        C  0.74916665  0.25161815  0.27990215     0.45500
H173        H  0.75344324  0.25311375  0.30829926    -0.03600
C174        C  0.71701544  0.27584765  0.23198610    -0.17300
C175        C  0.73078054  0.21374887  0.23267240    -0.17000
C176        C  0.77623988  0.25930830  0.22334521    -0.17400
C177        C  0.72211374  0.27752562  0.26704491    -0.17400
C178        C  0.73592935  0.21537983  0.26792184    -0.17000
C179        C  0.78120160  0.26089258  0.25874947    -0.17300
C180        C  0.25616456  0.74399951  0.21589309     0.45400
H181        H  0.25631007  0.74679386  0.18738077    -0.03600
C182        C  0.25626420  0.73851641  0.28262786     0.45500
H183        H  0.25620843  0.73580713  0.31125910    -0.03600
C184        C  0.28289173  0.71812766  0.22946814    -0.17300
C185        C  0.26508253  0.77877768  0.23444288    -0.17000
C186        C  0.22210488  0.72954235  0.23032982    -0.17400
C187        C  0.28321208  0.71551431  0.26476040    -0.17400
C188        C  0.26511329  0.77597703  0.27012097    -0.17000
C189        C  0.22221794  0.72715518  0.26600055    -0.17300
C190        C  0.74923566  0.74631697  0.21676713     0.45400
H191        H  0.74999361  0.74451842  0.18810979    -0.03600
C192        C  0.74859745  0.75061087  0.28363911     0.45500
H193        H  0.74854599  0.75263297  0.31230999    -0.03600
C194        C  0.72392806  0.72050598  0.23388876    -0.17300
C195        C  0.78410629  0.73803506  0.23346144    -0.17000
C196        C  0.73711200  0.78246830  0.22987825    -0.17400
C197        C  0.72406563  0.72249218  0.26938693    -0.17400
C198        C  0.78370862  0.73944853  0.26913628    -0.17000
C199        C  0.73689696  0.78477553  0.26556445    -0.17300
C200        C  0.19600142  0.71210256  0.20706493    -0.19900
C201        C  0.20588292  0.69238068  0.17744119     0.36300
C202        C  0.18142656  0.67539435  0.15718490    -0.25900
C203        C  0.14686850  0.67615573  0.16566250     0.02800
C204        C  0.13620979  0.69562467  0.19506203     0.27600
C205        C  0.16084346  0.71373460  0.21506228    -0.25000
N206        N  0.24085189  0.68748458  0.16820781    -0.82400
H207        H  0.18986923  0.66003854  0.13508426     0.13400
C208        C  0.12390073  0.65410135  0.14398114     0.02700
N209        N  0.10089347  0.69816535  0.20501693    -0.80900
H210        H  0.15238371  0.72897842  0.23716139     0.18200
C211        C  0.11081425  0.62266875  0.15759540    -0.25800
C212        C  0.09448528  0.59762280  0.13624496     0.36200
C213        C  0.09019834  0.60472236  0.10052127    -0.19800
C214        C  0.10356928  0.63633307  0.08710329    -0.25100
C215        C  0.12053675  0.66085281  0.10832750     0.27600
H216        H  0.11477639  0.61698597  0.18475311     0.13400
N217        N  0.08280213  0.56493617  0.15077770    -0.82300
H218        H  0.10130925  0.64194489  0.05979635     0.18200
N219        N  0.13530740  0.69220886  0.09370570    -0.83100
H220        H  0.08701754  0.56445560  0.17747851     0.33800
H221        H  0.09788734  0.54494069  0.14023074     0.38300
H222        H  0.13113640  0.69309841  0.06701439     0.33800
H223        H  0.12257976  0.71376550  0.10444963     0.30500
H224        H  0.09814419  0.68564345  0.22891701     0.33800
H225        H  0.08496711  0.68499485  0.18758033     0.30500
H226        H  0.24459187  0.69728483  0.14323360     0.38400
H227        H  0.24564394  0.66043570  0.16755660     0.33900
C228        C  0.19749309  0.70618786  0.28708733    -0.19900
C229        C  0.19457371  0.66947606  0.28284658     0.36300
C230        C  0.17358352  0.64989279  0.30519373    -0.25900
C231        C  0.15529824  0.66606582  0.33217712     0.02800
C232        C  0.15853665  0.70287753  0.33684304     0.27600
C233        C  0.17988210  0.72247122  0.31442422    -0.25000
N234        N  0.21380494  0.65175132  0.25655122    -0.82400
H235        H  0.17205648  0.62161922  0.30179978     0.13400
C236        C  0.13338006  0.64366187  0.35518766     0.02700
N237        N  0.14014727  0.72021878  0.36417423    -0.80900
H238        H  0.18287470  0.75056959  0.31827126     0.18200
C239        C  0.13838032  0.64392777  0.39123533    -0.25800
C240        C  0.11984960  0.62101244  0.41314245     0.36200
C241        C  0.09607192  0.59704834  0.39870911    -0.19800
C242        C  0.09082956  0.59712252  0.36278104    -0.25100
C243        C  0.10876793  0.62043924  0.34100995     0.27600
H244        H  0.15742173  0.66145203  0.40223604     0.13400
N245        N  0.12561887  0.62146374  0.44986119    -0.82300
H246        H  0.07205833  0.57940948  0.35162789     0.18200
N247        N  0.10192310  0.62078896  0.30446771    -0.80900
H248        H  0.14379644  0.64064546  0.45636489     0.33800
H249        H  0.13609195  0.59720637  0.45665177     0.38300
H250        H  0.08321717  0.60218447  0.29810735     0.33800
H251        H  0.09180208  0.64546169  0.29841867     0.30500
H252        H  0.14545569  0.74718243  0.36420002     0.33800
H253        H  0.11402766  0.71748081  0.35893467     0.30500
H254        H  0.19658593  0.63837867  0.24049646     0.38400
H255        H  0.22932090  0.63306168  0.26848255     0.33900
C256        C  0.08760298  0.38448254  0.40008576    -0.19900
C257        C  0.08445541  0.38488965  0.36359874     0.36300
C258        C  0.10328936  0.36074948  0.34359858    -0.25900
C259        C  0.12442450  0.33583518  0.35936977     0.02800
C260        C  0.12591274  0.33399907  0.39570718     0.27600
C261        C  0.10770123  0.35845519  0.41567642    -0.25000
N262        N  0.06212042  0.40952311  0.34697703    -0.82400
H263        H  0.10226743  0.36197731  0.31560589     0.13400
C264        C  0.14870401  0.31541707  0.33797802     0.02700
N265        N  0.14664064  0.30771864  0.41206152    -0.80900
H266        H  0.10977031  0.35755795  0.44359655     0.18200
C267        C  0.18353592  0.32212718  0.34254124    -0.25800
C268        C  0.20803612  0.30594993  0.32172614     0.36200
C269        C  0.19776377  0.28186257  0.29573043    -0.19800
C270        C  0.16276076  0.27390534  0.29218464    -0.25100
C271        C  0.13802691  0.29084369  0.31280363     0.27600
H272        H  0.19179221  0.34119625  0.36174756     0.13400
N273        N  0.24311792  0.31563555  0.32631041    -0.82300
H274        H  0.15468496  0.25513182  0.27266676     0.18200
N275        N  0.10227262  0.28349788  0.30810881    -0.80900
H276        H  0.24521918  0.34289589  0.32347692     0.33800
H277        H  0.25016071  0.30939787  0.35163632     0.38300
H278        H  0.09872940  0.26499852  0.28835934     0.33800
H279        H  0.09322856  0.27191324  0.33088814     0.30500
H280        H  0.14514712  0.30993432  0.43898357     0.33800
H281        H  0.13638185  0.28310866  0.40559252     0.30500
H282        H  0.03709483  0.40315992  0.35427691     0.38400
H283        H  0.06321194  0.40658316  0.32008005     0.33900
C284        C  0.18934862  0.28602193  0.21666285    -0.19900
C285        C  0.17371380  0.27058485  0.18723034     0.36300
C286        C  0.15305540  0.29126775  0.16558171    -0.25900
C287        C  0.14728115  0.32712263  0.17245704     0.02800
C288        C  0.16111612  0.34188144  0.20309458     0.27600
C289        C  0.18136004  0.32106578  0.22501408    -0.25000
N290        N  0.17835142  0.23413246  0.17838045    -0.82400
H291        H  0.14154245  0.27916370  0.14299761     0.13400
C292        C  0.12679482  0.34898091  0.14768342     0.02700
N293        N  0.15605463  0.37848071  0.21102917    -0.80900
H294        H  0.19343347  0.33332174  0.24720420     0.18200
C295        C  0.09996333  0.36972354  0.16049945    -0.25800
C296        C  0.08140047  0.39244110  0.13892441     0.36200
C297        C  0.08946961  0.39449943  0.10331038    -0.19800
C298        C  0.11502209  0.37241922  0.08994131    -0.25100
C299        C  0.13405750  0.35002104  0.11174292     0.27600
H300        H  0.09333412  0.36810807  0.18767121     0.13400
N301        N  0.05382822  0.41282593  0.15306975    -0.82300
H302        H  0.12084585  0.37344426  0.06253884     0.18200
N303        N  0.16114092  0.32894675  0.09758539    -0.80900
H304        H  0.05144011  0.40861840  0.17968597     0.33800
H305        H  0.03115778  0.40374761  0.14177772     0.38300
H306        H  0.16301240  0.33250448  0.07083444     0.33800
H307        H  0.18413921  0.33796573  0.10822544     0.30500
H308        H  0.16768633  0.38516495  0.23450551     0.33800
H309        H  0.16836738  0.39319197  0.19184936     0.30500
H310        H  0.19251697  0.22103013  0.19718286     0.38400
H311        H  0.15421187  0.22218791  0.17856099     0.33900
C312        C  0.90509181  0.39046239  0.09804457    -0.19900
C313        C  0.88451254  0.40001591  0.12648457     0.36300
C314        C  0.86763197  0.37387671  0.14571021    -0.25900
C315        C  0.87021629  0.33816425  0.13681352     0.02800
C316        C  0.89001334  0.32835029  0.10792479     0.27600
C317        C  0.90746567  0.35454975  0.08902489    -0.25000
N318        N  0.87945328  0.43623584  0.13519967    -0.82400
H319        H  0.85145710  0.38161128  0.16720346     0.13400
C320        C  0.84807793  0.31259795  0.15542383     0.02700
N321        N  0.89116618  0.29216203  0.09705212    -0.80900
H322        H  0.92285548  0.34679188  0.06698930     0.18200
C323        C  0.81303451  0.31439594  0.14901533    -0.25800
C324        C  0.78933627  0.29646976  0.16967301     0.36200
C325        C  0.80067877  0.27508906  0.19737935    -0.19800
C326        C  0.83619424  0.27090603  0.20180569    -0.25100
C327        C  0.86002383  0.28975460  0.18161982     0.27600
H328        H  0.80374783  0.33163255  0.12882208     0.13400
N329        N  0.75383017  0.30207701  0.16315020    -0.82300
H330        H  0.84557373  0.25397592  0.22216282     0.18200
N331        N  0.89571233  0.28630719  0.18967976    -0.80900
H332        H  0.74852843  0.29364171  0.13793988     0.33800
H333        H  0.74917555  0.32910274  0.16435324     0.38300
H334        H  0.90270540  0.26033392  0.18424153     0.33800
H335        H  0.91089252  0.30244561  0.17413650     0.30500
H336        H  0.90597869  0.28954338  0.07466277     0.33800
H337        H  0.90356228  0.27784369  0.11631208     0.30500
H338        H  0.85327807  0.44150605  0.13373476     0.38400
H339        H  0.88716420  0.44000498  0.16082969     0.33900
C340        C  0.90254402  0.39379154  0.39345926    -0.19900
C341        C  0.90743498  0.39627634  0.35717984     0.36300
C342        C  0.88796437  0.37493436  0.33463286    -0.25900
C343        C  0.86372855  0.35077195  0.34715368     0.02800
C344        C  0.85841602  0.34851958  0.38330488     0.27600
C345        C  0.87802252  0.36977665  0.40601026    -0.25000
N346        N  0.93293684  0.41962857  0.34319887    -0.82400
H347        H  0.89238469  0.37649343  0.30699771     0.13400
C348        C  0.84475987  0.32759374  0.32209376     0.02700
N349        N  0.83294683  0.32482969  0.39680569    -0.80900
H350        H  0.87389154  0.36781490  0.43365945     0.18200
C351        C  0.84558890  0.29082091  0.32607243    -0.25800
C352        C  0.82687313  0.26842561  0.30397501     0.36200
C353        C  0.80783414  0.28257464  0.27654085    -0.19800
C354        C  0.80822629  0.31912980  0.27143044    -0.25100
C355        C  0.82587407  0.34181284  0.29425788     0.27600
H356        H  0.86024382  0.27943930  0.34696317     0.13400
N357        N  0.82646718  0.23126436  0.30997620    -0.82300
H358        H  0.79255092  0.33019085  0.25114006     0.18200
N359        N  0.82323708  0.37928550  0.29030047    -0.80900
H360        H  0.85167328  0.22228848  0.30898663     0.33800
H361        H  0.81711060  0.22690717  0.33496447     0.38300
H362        H  0.81020497  0.38899545  0.31193635     0.33800
H363        H  0.80831154  0.38543638  0.26875098     0.30500
H364        H  0.83208465  0.32629531  0.42380494     0.33800
H365        H  0.80913431  0.33323623  0.38787530     0.30500
H366        H  0.93276704  0.41887694  0.31616579     0.38400
H367        H  0.95683653  0.41022215  0.35086390     0.33900
C368        C  0.90644953  0.59935353  0.39416518    -0.19900
C369        C  0.88876223  0.62792251  0.40933887     0.36300
C370        C  0.87127164  0.65191172  0.38810134    -0.25900
C371        C  0.87028799  0.64764683  0.35206312     0.02800
C372        C  0.88666558  0.61845987  0.33691491     0.27600
C373        C  0.90494669  0.59486552  0.35801478    -0.25000
N374        N  0.88801230  0.63214290  0.44631512    -0.82400
H375        H  0.85765835  0.67371785  0.39974601     0.13400
C376        C  0.84880419  0.67178184  0.33107531     0.02700
N377        N  0.88420173  0.61266222  0.30023165    -0.80900
H378        H  0.91810351  0.57298047  0.34606397     0.18200
C379        C  0.86372951  0.69779230  0.30997688    -0.25800
C380        C  0.84326755  0.72066167  0.29005960     0.36200
C381        C  0.80727803  0.71767806  0.29128833    -0.19800
C382        C  0.79286144  0.69201742  0.31318285    -0.25100
C383        C  0.81301615  0.66873910  0.33234747     0.27600
H384        H  0.89131420  0.70036235  0.30899783     0.13400
N385        N  0.85910928  0.74715145  0.26914508    -0.82300
H386        H  0.76562468  0.68918297  0.31498143     0.18200
N387        N  0.79723673  0.64155923  0.35281428    -0.80900
H388        H  0.87563273  0.73464444  0.25178869     0.33800
H389        H  0.87388635  0.76323404  0.28529086     0.38300
H390        H  0.77058973  0.64282667  0.35106484     0.33800
H391        H  0.80429668  0.61734621  0.34212786     0.30500
H392        H  0.89757811  0.59002607  0.29308309     0.33800
H393        H  0.85848966  0.60781064  0.29443911     0.30500
H394        H  0.87485451  0.61053038  0.45658293     0.38400
H395        H  0.87404734  0.65446113  0.45327328     0.33900
C396        C  0.90613196  0.60428339  0.10049975    -0.19900
C397        C  0.91096832  0.60333858  0.13684816     0.36300
C398        C  0.89307977  0.62703747  0.15830010    -0.25900
C399        C  0.86914503  0.65065596  0.14479989     0.02800
C400        C  0.86436650  0.65185636  0.10859758     0.27600
C401        C  0.88323155  0.62907535  0.08686865    -0.25000
N402        N  0.93460634  0.57901349  0.15200764    -0.82400
H403        H  0.89758177  0.62682652  0.18594590     0.13400
C404        C  0.84870807  0.67315533  0.16901744     0.02700
N405        N  0.84014779  0.67596644  0.09405707    -0.80900
H406        H  0.87948471  0.63018283  0.05913087     0.18200
C407        C  0.85100039  0.71009559  0.16706802    -0.25800
C408        C  0.83101921  0.73175978  0.18874895     0.36200
C409        C  0.80882722  0.71646978  0.21320360    -0.19800
C410        C  0.80690179  0.67973926  0.21554535    -0.25100
C411        C  0.82613096  0.65806568  0.19365678     0.27600
H412        H  0.86807988  0.72214694  0.14839334     0.13400
N413        N  0.83326578  0.76925504  0.18592265    -0.82300
H414        H  0.78907851  0.66776441  0.23357240     0.18200
N415        N  0.82061432  0.62085019  0.19572674    -0.80900
H416        H  0.85867482  0.77668959  0.19026425     0.33800
H417        H  0.82695685  0.77616509  0.16057083     0.38300
H418        H  0.84329629  0.60868899  0.20316031     0.33800
H419        H  0.81352521  0.61158176  0.17127550     0.30500
H420        H  0.83971630  0.67372240  0.06709430     0.33800
H421        H  0.81584449  0.66861282  0.10283324     0.30500
H422        H  0.92385772  0.55387322  0.14976256     0.38400
H423        H  0.93713137  0.58372614  0.17854689     0.33900
C424        C  0.60392005  0.09788083  0.40373800    -0.19900
C425        C  0.63169287  0.11713146  0.41768315     0.36300
C426        C  0.65578318  0.13256336  0.39553434    -0.25900
C427        C  0.65189727  0.13092522  0.35957100     0.02800
C428        C  0.62398507  0.11234847  0.34534012     0.27600
C429        C  0.60041237  0.09573006  0.36757336    -0.25000
N430        N  0.63506708  0.12224747  0.45424031    -0.82400
H431        H  0.67713855  0.14699461  0.40655025     0.13400
C432        C  0.67528771  0.15182527  0.33746461     0.02700
N433        N  0.61956543  0.11076024  0.30845045    -0.80900
H434        H  0.57927574  0.08100458  0.35655758     0.18200
C435        C  0.69781219  0.13504957  0.31442300    -0.25800
C436        C  0.71943809  0.15462053  0.29246736     0.36200
C437        C  0.71803519  0.19190355  0.29330430    -0.19800
C438        C  0.69626131  0.20816146  0.31750073    -0.25100
C439        C  0.67470119  0.18882888  0.33887778     0.27600
H440        H  0.69867894  0.10656689  0.31361090     0.13400
N441        N  0.74304866  0.13581126  0.27083513    -0.82300
H442        H  0.69433944  0.23642310  0.31879341     0.18200
N443        N  0.65118242  0.20764576  0.36050759    -0.80900
H444        H  0.72886639  0.12193250  0.25237013     0.33800
H445        H  0.75951274  0.15287953  0.25769141     0.38300
H446        H  0.65649521  0.20223847  0.38640284     0.33800
H447        H  0.62635448  0.19912316  0.35484902     0.30500
H448        H  0.59787601  0.09586609  0.30214749     0.33800
H449        H  0.61498431  0.13631294  0.29976239     0.30500
H450        H  0.65881662  0.11241694  0.46183843     0.38400
H451        H  0.63491631  0.14929168  0.45926924     0.33900
C452        C  0.60083138  0.08865756  0.10255762    -0.19900
C453        C  0.62484874  0.11294880  0.08917479     0.36300
C454        C  0.64827904  0.12924712  0.11175784    -0.25900
C455        C  0.64868236  0.12107453  0.14715300     0.02800
C456        C  0.62556414  0.09575981  0.16018983     0.27600
C457        C  0.60164632  0.08010542  0.13783758    -0.25000
N458        N  0.62439102  0.12214908  0.05310910    -0.82400
H459        H  0.66573320  0.14907277  0.10190933     0.13400
C460        C  0.67078522  0.14182502  0.17090553     0.02700
N461        N  0.62636706  0.08634046  0.19618616    -0.80900
H462        H  0.58384194  0.06077337  0.14796493     0.18200
C463        C  0.65506870  0.16099668  0.19738773    -0.25800
C464        C  0.67372617  0.18359838  0.21876806     0.36200
C465        C  0.70969555  0.18677553  0.21424840    -0.19800
C466        C  0.72553870  0.16707445  0.18799108    -0.25100
C467        C  0.70647752  0.14450029  0.16632168     0.27600
H468        H  0.62752251  0.15970458  0.20045302     0.13400
N469        N  0.65461502  0.20449313  0.24282036    -0.82300
H470        H  0.75284807  0.16988685  0.18399710     0.18200
N471        N  0.72307736  0.12465880  0.13947893    -0.80900
H472        H  0.64489493  0.18766104  0.26188153     0.33800
H473        H  0.67007517  0.22286813  0.25492729     0.38300
H474        H  0.74937620  0.12969314  0.13945920     0.33800
H475        H  0.71996761  0.09797954  0.14530116     0.30500
H476        H  0.60762556  0.06741825  0.20169864     0.33800
H477        H  0.64997702  0.07461119  0.20101822     0.30500
H478        H  0.63264332  0.10025580  0.03905831     0.38400
H479        H  0.64213635  0.14217064  0.04803389     0.33900
C480        C  0.39356120  0.09630214  0.09719444    -0.19900
C481        C  0.36472363  0.11376376  0.08337449     0.36300
C482        C  0.34216517  0.13169066  0.10531980    -0.25900
C483        C  0.34823810  0.13416887  0.14083317     0.02800
C484        C  0.37735944  0.11796140  0.15496289     0.27600
C485        C  0.39955937  0.09883372  0.13308291    -0.25000
N486        N  0.35853527  0.11457806  0.04692213    -0.82400
H487        H  0.32019548  0.14483067  0.09430992     0.13400
C488        C  0.32557393  0.15680040  0.16204300     0.02700
N489        N  0.38433251  0.12125370  0.19134189    -0.80900
H490        H  0.42161471  0.08594516  0.14412712     0.18200
C491        C  0.30093076  0.14174992  0.18406993    -0.25800
C492        C  0.27947469  0.16315835  0.20445358     0.36200
C493        C  0.28299499  0.20006057  0.20307783    -0.19800
C494        C  0.30672339  0.21476655  0.17990216    -0.25100
C495        C  0.32805167  0.19373540  0.15975968     0.27600
H496        H  0.29836142  0.11339066  0.18542112     0.13400
N497        N  0.25394376  0.14745866  0.22613854    -0.82300
H498        H  0.30964836  0.24290716  0.17800111     0.18200
N499        N  0.35273673  0.21062749  0.13787114    -0.80900
H500        H  0.26614142  0.13033471  0.24319778     0.33800
H501        H  0.23764581  0.13249813  0.21045196     0.38300
H502        H  0.34793436  0.20342152  0.11223454     0.33800
H503        H  0.37706748  0.20177323  0.14470534     0.30500
H504        H  0.40672998  0.10786836  0.19770300     0.33800
H505        H  0.38891110  0.14786817  0.19662782     0.30500
H506        H  0.33433141  0.10374033  0.04232791     0.38400
H507        H  0.35820019  0.14086102  0.03901780     0.33900
C508        C  0.28863928  0.19551144  0.28144391    -0.19900
C509        C  0.27463100  0.17546433  0.30887397     0.36300
C510        C  0.29623432  0.15445088  0.32911136    -0.25900
C511        C  0.33186323  0.15404916  0.32394738     0.02800
C512        C  0.34578997  0.17424568  0.29653820     0.27600
C513        C  0.32394829  0.19380249  0.27507091    -0.25000
N514        N  0.23877593  0.17599173  0.31724242    -0.82400
H515        H  0.28499654  0.13860538  0.34945777     0.13400
C516        C  0.35422862  0.13267634  0.34741901     0.02700
N517        N  0.38218628  0.17611114  0.29149362    -0.80900
H518        H  0.33487336  0.20991820  0.25472917     0.18200
C519        C  0.37891606  0.11023204  0.33300454    -0.25800
C520        C  0.40110506  0.09037413  0.35389616     0.36200
C521        C  0.39862726  0.09271945  0.39043960    -0.19800
C522        C  0.37303752  0.11402355  0.40485683    -0.25100
C523        C  0.35121256  0.13434621  0.38391644     0.27600
H524        H  0.38064646  0.10783784  0.30511882     0.13400
N525        N  0.42542967  0.06722336  0.33789585    -0.82300
H526        H  0.37069945  0.11563115  0.43275312     0.18200
N527        N  0.32652716  0.15725453  0.39971051    -0.80900
H528        H  0.41831823  0.04144382  0.34409194     0.33800
H529        H  0.42436474  0.06913563  0.31093364     0.38300
H530        H  0.32735251  0.15520619  0.42666579     0.33800
H531        H  0.33344660  0.18311547  0.39363799     0.30500
H532        H  0.38822855  0.19217049  0.27039523     0.33800
H533        H  0.39272114  0.18825544  0.31333854     0.30500
H534        H  0.22503522  0.19191532  0.30033947     0.38400
H535        H  0.22927543  0.15047108  0.31381017     0.33900
C536        C  0.71586608  0.80545063  0.20665923    -0.19900
C537        C  0.71587371  0.84258674  0.20910656     0.36300
C538        C  0.69211106  0.86218051  0.18959583    -0.25900
C539        C  0.66971003  0.84547414  0.16632600     0.02800
C540        C  0.67148435  0.80881695  0.16191560     0.27600
C541        C  0.69408602  0.78928783  0.18227335    -0.25000
N542        N  0.74028507  0.86021823  0.23088292    -0.82400
H543        H  0.69144950  0.89057197  0.19201771     0.13400
C544        C  0.64516441  0.86626922  0.14548483     0.02700
N545        N  0.65019734  0.79153218  0.13669072    -0.80900
H546        H  0.69391152  0.76110504  0.17924962     0.18200
C547        C  0.65098658  0.86986023  0.10993706    -0.25800
C548        C  0.62716265  0.88658808  0.08841336     0.36200
C549        C  0.59678377  0.90065891  0.10284792    -0.19800
C550        C  0.59098918  0.89687100  0.13863541    -0.25100
C551        C  0.61481621  0.87966054  0.16004193     0.27600
H552        H  0.67409097  0.85892036  0.09884320     0.13400
N553        N  0.63374612  0.88901560  0.05188088    -0.82300
H554        H  0.56797781  0.90749651  0.15010098     0.18200
N555        N  0.60827916  0.87551960  0.19642529    -0.80900
H556        H  0.65749085  0.87812911  0.04567547     0.33800
H557        H  0.61533657  0.87368627  0.03922053     0.38300
H558        H  0.58491996  0.88693774  0.20315586     0.33800
H559        H  0.60585129  0.84858748  0.20138550     0.30500
H560        H  0.65535954  0.76458514  0.13579166     0.33800
H561        H  0.62479982  0.79413974  0.14471663     0.30500
H562        H  0.76463378  0.85481165  0.22106418     0.38400
H563        H  0.73714566  0.88748155  0.22954983     0.33900
C564        C  0.60388311  0.90834606  0.39768144    -0.19900
C565        C  0.60071256  0.91072027  0.36125197     0.36300
C566        C  0.62268353  0.89110915  0.33976038    -0.25900
C567        C  0.64771162  0.86883195  0.35354564     0.02800
C568        C  0.65084352  0.86638197  0.38992098     0.27600
C569        C  0.62933015  0.88655231  0.41149251    -0.25000
N570        N  0.57565768  0.93346118  0.34601862    -0.82400
H571        H  0.62055076  0.89356838  0.31192980     0.13400
C572        C  0.67045298  0.84849047  0.32952629     0.02700
N573        N  0.67534692  0.84283140  0.40485947    -0.80900
H574        H  0.63188143  0.88449099  0.43931341     0.18200
C575        C  0.70617759  0.85035704  0.33347010    -0.25800
C576        C  0.72830119  0.83073214  0.31208340     0.36200
C577        C  0.71465520  0.80960205  0.28545933    -0.19800
C578        C  0.67903742  0.80862873  0.28063528    -0.25100
C579        C  0.65680187  0.82725890  0.30272360     0.27600
H580        H  0.71685698  0.86698999  0.35356583     0.13400
N581        N  0.76462075  0.83179100  0.31752094    -0.82300
H582        H  0.66842778  0.79148394  0.26090453     0.18200
N583        N  0.62039754  0.82346126  0.29896409    -0.80900
H584        H  0.77064948  0.84840713  0.33826098     0.33800
H585        H  0.77581132  0.84289024  0.29550448     0.38300
H586        H  0.61454502  0.80683478  0.27818255     0.33800
H587        H  0.61112249  0.81108170  0.32124047     0.30500
H588        H  0.67449830  0.84413528  0.43187173     0.33800
H589        H  0.66817175  0.81720712  0.39800509     0.30500
H590        H  0.58275407  0.95938011  0.35179583     0.38400
H591        H  0.57595466  0.93126330  0.31905086     0.33900
C592        C  0.40011687  0.90294769  0.39602302    -0.19900
C593        C  0.37577803  0.88038658  0.41155839     0.36300
C594        C  0.35225910  0.86207201  0.39067700    -0.25900
C595        C  0.35262134  0.86556583  0.35455875     0.02800
C596        C  0.37690382  0.88799880  0.33890473     0.27600
C597        C  0.40046437  0.90648191  0.35980644    -0.25000
N598        N  0.37535315  0.87575405  0.44846966    -0.82400
H599        H  0.33377865  0.84450499  0.40255471     0.13400
C600        C  0.32919893  0.84324537  0.33354429     0.02700
N601        N  0.37768577  0.89164607  0.30189652    -0.80900
H602        H  0.41882407  0.92404347  0.34778540     0.18200
C603        C  0.30358838  0.85849564  0.31309674    -0.25800
C604        C  0.28101672  0.83760401  0.29334481     0.36200
C605        C  0.28451829  0.80042840  0.29364499    -0.19800
C606        C  0.30985390  0.78560957  0.31487364    -0.25100
C607        C  0.33232462  0.80643378  0.33434267     0.27600
H608        H  0.30087254  0.88685168  0.31280625     0.13400
N609        N  0.25459774  0.85501512  0.27420890    -0.82300
H610        H  0.31334106  0.75750928  0.31542405     0.18200
N611        N  0.35893403  0.79033193  0.35439974    -0.80900
H612        H  0.26631743  0.86929186  0.25432754     0.33800
H613        H  0.23769388  0.83711511  0.26284041     0.38300
H614        H  0.35773095  0.76290097  0.35235938     0.33800
H615        H  0.38236117  0.79800572  0.34368478     0.30500
H616        H  0.39694225  0.90924775  0.29445910     0.33800
H617        H  0.38412908  0.86718657  0.29135039     0.30500
H618        H  0.39835036  0.86383036  0.45543781     0.38400
H619        H  0.35578631  0.85842683  0.45577116     0.33900
C620        C  0.28487005  0.80564583  0.21429959    -0.19900
C621        C  0.27129023  0.81990398  0.18368146     0.36300
C622        C  0.29234363  0.83950327  0.16127976    -0.25900
C623        C  0.32718290  0.84472920  0.16854884     0.02800
C624        C  0.34083391  0.83082101  0.19938888     0.27600
C625        C  0.31953331  0.81180114  0.22197428    -0.25000
N626        N  0.23615308  0.81397562  0.17497894    -0.82400
H627        H  0.28149139  0.85036730  0.13787885     0.13400
C628        C  0.34915563  0.86489958  0.14395189     0.02700
N629        N  0.37664356  0.83475469  0.20694775    -0.80900
H630        H  0.33079931  0.79995876  0.24454582     0.18200
C631        C  0.36785591  0.89390376  0.15627705    -0.25800
C632        C  0.38978405  0.91295915  0.13447921     0.36200
C633        C  0.39268429  0.90359549  0.09926198    -0.19800
C634        C  0.37330779  0.87522101  0.08653994    -0.25100
C635        C  0.35214046  0.85523470  0.10870433     0.27600
H636        H  0.36547675  0.90181695  0.18313268     0.13400
N637        N  0.40846793  0.94236422  0.14814012    -0.82300
H638        H  0.37555321  0.86796531  0.05949938     0.18200
N639        N  0.33439359  0.82471136  0.09580218    -0.80900
H640        H  0.39092698  0.96030570  0.15834634     0.33800
H641        H  0.42372509  0.93336085  0.16842496     0.38300
H642        H  0.33936045  0.82117669  0.06942700     0.33800
H643        H  0.34436457  0.80275255  0.10843530     0.30500
H644        H  0.38261239  0.82307334  0.23062991     0.33800
H645        H  0.39022847  0.82100558  0.18795869     0.30500
H646        H  0.23530168  0.80123494  0.15097215     0.38400
H647        H  0.22438535  0.83844436  0.17232302     0.33900
C648        C  0.41846698  0.58981190  0.38521622    -0.19900
C649        C  0.41076629  0.62494673  0.39422509     0.36300
C650        C  0.38890191  0.64426614  0.37294763    -0.25900
C651        C  0.37465700  0.62903809  0.34327724     0.02800
C652        C  0.38313244  0.59443591  0.33362710     0.27600
C653        C  0.40464391  0.57486563  0.35513429    -0.25000
N654        N  0.42413815  0.64046065  0.42541317    -0.82400
H655        H  0.38238464  0.67109911  0.37977330     0.13400
C656        C  0.35110591  0.65008979  0.32248768     0.02700
N657        N  0.37079884  0.57983682  0.30159745    -0.80900
H658        H  0.41084589  0.54794563  0.34836587     0.18200
C659        C  0.36478359  0.67484538  0.29964103    -0.25800
C660        C  0.34356160  0.69705892  0.28080811     0.36200
C661        C  0.30753445  0.69368541  0.28445081    -0.19800
C662        C  0.29400570  0.66921620  0.30787686    -0.25100
C663        C  0.31549332  0.64738688  0.32715025     0.27600
H664        H  0.39229506  0.67754316  0.29714233     0.13400
N665        N  0.35965854  0.72372096  0.26000892    -0.82300
H666        H  0.26656300  0.66720773  0.31117456     0.18200
N667        N  0.30144778  0.62354438  0.35234220    -0.80900
H668        H  0.37192784  0.71115353  0.23930651     0.33800
H669        H  0.34211340  0.74114224  0.24971618     0.38300
H670        H  0.27478745  0.62556427  0.35312855     0.33800
H671        H  0.30677963  0.59790078  0.34437671     0.30500
H672        H  0.38017108  0.55434665  0.29802952     0.33800
H673        H  0.34425550  0.57753424  0.30315464     0.30500
H674        H  0.41332148  0.62700131  0.44633165     0.38400
H675        H  0.41640231  0.66666120  0.42775586     0.33900
C676        C  0.30343240  0.69576483  0.20616895    -0.19900
C677        C  0.32134154  0.71025307  0.17797361     0.36300
C678        C  0.33757374  0.68799928  0.15449019    -0.25900
C679        C  0.33577134  0.65147501  0.15842857     0.02800
C680        C  0.31781309  0.63666594  0.18640719     0.27600
C681        C  0.30194071  0.65907112  0.21028126    -0.25000
N682        N  0.32347781  0.74749402  0.17325984    -0.82400
H683        H  0.35173370  0.69926182  0.13303109     0.13400
C684        C  0.35520239  0.62957459  0.13426596     0.02700
N685        N  0.31557492  0.59911751  0.19021118    -0.80900
H686        H  0.28720382  0.64788850  0.23133435     0.18200
C687        C  0.39082017  0.63229105  0.13490149    -0.25800
C688        C  0.41080220  0.61390316  0.11105841     0.36200
C689        C  0.39455967  0.59278225  0.08579960    -0.19800
C690        C  0.35879685  0.58926724  0.08583319    -0.25100
C691        C  0.33893769  0.60776242  0.10989520     0.27600
H692        H  0.40300122  0.64901882  0.15406627     0.13400
N693        N  0.44747297  0.61646165  0.11255699    -0.82300
H694        H  0.34618041  0.57311010  0.06651176     0.18200
N695        N  0.30239207  0.60528035  0.10892730    -0.80900
H696        H  0.45515537  0.63349772  0.13241602     0.33800
H697        H  0.45680711  0.59159736  0.11892293     0.38300
H698        H  0.29424049  0.61324169  0.08443667     0.33800
H699        H  0.29556023  0.57884753  0.11206898     0.30500
H700        H  0.34024618  0.58977455  0.19477869     0.33800
H701        H  0.30093524  0.59258967  0.21194514     0.30500
H702        H  0.31319195  0.75352672  0.14905041     0.38400
H703        H  0.34930259  0.75472757  0.17307994     0.33900
C704        C  0.60737906  0.58951141  0.40198522    -0.19900
C705        C  0.59396008  0.60294941  0.37092915     0.36300
C706        C  0.61562485  0.62132718  0.34842870    -0.25900
C707        C  0.65016368  0.62616976  0.35649733     0.02800
C708        C  0.66398138  0.61161339  0.38677159     0.27600
C709        C  0.64237196  0.59300767  0.40923545    -0.25000
N710        N  0.55848917  0.59796023  0.36244881    -0.82400
H711        H  0.60545707  0.63274863  0.32495247     0.13400
C712        C  0.67042934  0.64986927  0.33478748     0.02700
N713        N  0.69940526  0.61714491  0.39519052    -0.80900
H714        H  0.65253412  0.58249897  0.43311869     0.18200
C715        C  0.66967172  0.68580514  0.34238211    -0.25800
C716        C  0.68645547  0.70998480  0.32113420     0.36200
C717        C  0.70480202  0.69795287  0.29209436    -0.19800
C718        C  0.70590212  0.66165788  0.28487706    -0.25100
C719        C  0.68837827  0.63745788  0.30575949     0.27600
H720        H  0.65523707  0.69519075  0.36450659     0.13400
N721        N  0.68365350  0.74671114  0.32854402    -0.82300
H722        H  0.72053175  0.65222767  0.26292986     0.18200
N723        N  0.68799196  0.60061676  0.29724998    -0.80900
H724        H  0.69328503  0.75127710  0.35336637     0.33800
H725        H  0.65768435  0.75315168  0.32870332     0.38300
H726        H  0.70187623  0.59600615  0.27455017     0.33800
H727        H  0.70059284  0.58721996  0.31700327     0.30500
H728        H  0.70529167  0.60529800  0.41881054     0.33800
H729        H  0.71407951  0.60438659  0.37638923     0.30500
H730        H  0.55430521  0.57094609  0.35932948     0.38400
H731        H  0.55279957  0.60966675  0.33871141     0.33900
C732        C  0.69719952  0.70110555  0.21413369    -0.19900
C733        C  0.70488784  0.68144200  0.18422128     0.36300
C734        C  0.67847351  0.66418573  0.16637317    -0.25900
C735        C  0.64459370  0.66614966  0.17812848     0.02800
C736        C  0.63672934  0.68569972  0.20793340     0.27600
C737        C  0.66298827  0.70364774  0.22517980    -0.25000
N738        N  0.73937362  0.67845790  0.17217472    -0.82400
H739        H  0.68441250  0.64900399  0.14337307     0.13400
C740        C  0.61762239  0.64729083  0.15899925     0.02700
N741        N  0.60222765  0.68679472  0.22076532    -0.80900
H742        H  0.65665349  0.71984912  0.24735067     0.18200
C743        C  0.61324906  0.61131369  0.16535622    -0.25800
C744        C  0.59048883  0.59113769  0.14545423     0.36200
C745        C  0.57230693  0.60730420  0.11838470    -0.19800
C746        C  0.57473236  0.64382135  0.11379874    -0.25100
C747        C  0.59736078  0.66408868  0.13369562     0.27600
H748        H  0.62831383  0.59882867  0.18533639     0.13400
N749        N  0.58634497  0.55412939  0.15197720    -0.82300
H750        H  0.56058282  0.65645805  0.09325823     0.18200
N751        N  0.59964053  0.70121860  0.12686369    -0.80900
H752        H  0.60167144  0.54631777  0.17268842     0.33800
H753        H  0.56098807  0.54996217  0.15963061     0.38300
H754        H  0.60906285  0.70433295  0.10172967     0.33800
H755        H  0.61691588  0.71382230  0.14332224     0.30500
H756        H  0.60098437  0.70153748  0.24360798     0.33800
H757        H  0.58737472  0.69999243  0.20253510     0.30500
H758        H  0.74573678  0.65178126  0.17152789     0.38400
H759        H  0.74046190  0.68804487  0.14686503     0.33900
C760        C  0.70389389  0.30120662  0.29131775    -0.19900
C761        C  0.66785043  0.30249716  0.29305650     0.36300
C762        C  0.65212360  0.32433374  0.31727335    -0.25900
C763        C  0.67161743  0.34456115  0.34009386     0.02800
C764        C  0.70750704  0.34317115  0.33911318     0.27600
C765        C  0.72335801  0.32127167  0.31471221    -0.25000
N766        N  0.64692953  0.28076095  0.27145448    -0.82400
H767        H  0.62444205  0.32513626  0.31863537     0.13400
C768        C  0.65354269  0.36636668  0.36534783     0.02700
N769        N  0.72752575  0.36337836  0.36326072    -0.80900
H770        H  0.75095664  0.31987452  0.31396237     0.18200
C771        C  0.64342569  0.35119472  0.39669678    -0.25800
C772        C  0.62325682  0.37010223  0.42013949     0.36200
C773        C  0.61381523  0.40482229  0.41197050    -0.19800
C774        C  0.62425714  0.42010278  0.38077550    -0.25100
C775        C  0.64362120  0.40080489  0.35690862     0.27600
H776        H  0.65072023  0.32436209  0.40245019     0.13400
N777        N  0.61226746  0.35430781  0.45208055    -0.82300
H778        H  0.61630130  0.44662855  0.37460515     0.18200
N779        N  0.65210284  0.41532972  0.32365726    -0.80900
H780        H  0.62122095  0.32848962  0.45390945     0.33800
H781        H  0.62355434  0.36843129  0.47233337     0.38300
H782        H  0.64203436  0.44062770  0.32119065     0.33800
H783        H  0.67867667  0.41795223  0.32233792     0.30500
H784        H  0.75360823  0.35901850  0.35922469     0.33800
H785        H  0.72333786  0.38999751  0.35816623     0.30500
H786        H  0.63039444  0.29703770  0.25763826     0.38400
H787        H  0.63201687  0.26463452  0.28742278     0.33900
C788        C  0.69321366  0.29857545  0.21278771    -0.19900
C789        C  0.69591933  0.33549408  0.21431207     0.36300
C790        C  0.67258166  0.35608990  0.19614888    -0.25900
C791        C  0.64621659  0.34039314  0.17698150     0.02800
C792        C  0.64321978  0.30344274  0.17563976     0.27600
C793        C  0.66743843  0.28282382  0.19284418    -0.25000
N794        N  0.72297120  0.35209116  0.23334231    -0.82400
H795        H  0.67523921  0.38448699  0.19671581     0.13400
C796        C  0.62291888  0.36313103  0.15728265     0.02700
N797        N  0.61533028  0.28717830  0.15732123    -0.80900
H798        H  0.66556974  0.25443568  0.19162256     0.18200
C799        C  0.62201277  0.35988490  0.12118549    -0.25800
C800        C  0.60203253  0.38256413  0.10128949     0.36200
C801        C  0.58263974  0.40876032  0.11803928    -0.19800
C802        C  0.58332465  0.41200444  0.15406023    -0.25100
C803        C  0.60313399  0.38904799  0.17401407     0.27600
H804        H  0.63755824  0.34012086  0.10852217     0.13400
N805        N  0.60161806  0.37945491  0.06417118    -0.82300
H806        H  0.56823701  0.43225087  0.16654078     0.18200
N807        N  0.60326503  0.39177448  0.21111413    -0.80900
H808        H  0.61699062  0.35857067  0.05602315     0.33800
H809        H  0.61253999  0.40235144  0.05395412     0.38300
H810        H  0.58734544  0.41216906  0.21931561     0.33800
H811        H  0.59279781  0.36845970  0.22094126     0.30500
H812        H  0.61671743  0.25977178  0.15915226     0.33800
H813        H  0.59270034  0.29458412  0.16975025     0.30500
H814        H  0.71195202  0.36886200  0.25168327     0.38400
H815        H  0.73727016  0.36754637  0.21623876     0.33900
C816        C  0.30947796  0.30365888  0.28334270    -0.19900
C817        C  0.31228853  0.34063578  0.28279022     0.36300
C818        C  0.33839048  0.35725962  0.30162372    -0.25900
C819        C  0.36159908  0.33746848  0.32105795     0.02800
C820        C  0.35907565  0.30054172  0.32136326     0.27600
C821        C  0.33267661  0.28408977  0.30293951    -0.25000
N822        N  0.28800333  0.36140515  0.26428514    -0.82400
H823        H  0.33995767  0.38573928  0.30189872     0.13400
C824        C  0.38648740  0.35572536  0.34346430     0.02700
N825        N  0.38325976  0.28001864  0.34058090    -0.80900
H826        H  0.33035055  0.25585529  0.30383499     0.18200
C827        C  0.38358486  0.35152725  0.37936178    -0.25800
C828        C  0.40546215  0.36961476  0.40190331     0.36200
C829        C  0.43018644  0.39267351  0.38812063    -0.19800
C830        C  0.43373218  0.39637884  0.35226759    -0.25100
C831        C  0.41223103  0.37764029  0.32962118     0.27600
H832        H  0.36374348  0.33456430  0.38976680     0.13400
N833        N  0.40196530  0.36568032  0.43874047    -0.82300
H834        H  0.45284101  0.41431334  0.34204727     0.18200
N835        N  0.41616631  0.38085688  0.29278651    -0.80900
H836        H  0.42433202  0.35397784  0.44786437     0.33800
H837        H  0.38196722  0.34833323  0.44461228     0.38300
H838        H  0.43634549  0.39797872  0.28689162     0.33800
H839        H  0.42304928  0.35613969  0.28315711     0.30500
H840        H  0.37775285  0.25316870  0.33821018     0.33800
H841        H  0.40731699  0.28397366  0.32936396     0.30500
H842        H  0.30140861  0.37672514  0.24634275     0.38400
H843        H  0.27626783  0.37853335  0.28180817     0.33900
C844        C  0.39714023  0.40924913  0.08876354    -0.19900
C845        C  0.40147371  0.41487754  0.12441715     0.36300
C846        C  0.38274621  0.39431019  0.14773070    -0.25900
C847        C  0.35988975  0.36869495  0.13558764     0.02800
C848        C  0.35499463  0.36364887  0.09979949     0.27600
C849        C  0.37388668  0.38412119  0.07652857    -0.25000
N850        N  0.42512697  0.44118283  0.13658977    -0.82400
H851        H  0.38575849  0.39828625  0.17533898     0.13400
C852        C  0.33988189  0.34834964  0.16056796     0.02700
N853        N  0.33113142  0.33758947  0.08746139    -0.80900
H854        H  0.37123460  0.37986795  0.04891418     0.18200
C855        C  0.30466111  0.35359820  0.16157009    -0.25800
C856        C  0.28410875  0.33402172  0.18361005     0.36200
C857        C  0.29900461  0.30869821  0.20554719    -0.19800
C858        C  0.33460633  0.30406858  0.20513573    -0.25100
C859        C  0.35530171  0.32366429  0.18258554     0.27600
H860        H  0.29303532  0.37306546  0.14490275     0.13400
N861        N  0.24845049  0.34165618  0.18402892    -0.82300
H862        H  0.34607517  0.28451721  0.22178626     0.18200
N863        N  0.39164355  0.31832545  0.18149640    -0.80900
H864        H  0.24165254  0.34821444  0.20932486     0.33800
H865        H  0.23504423  0.31941434  0.17575914     0.38300
H866        H  0.39885071  0.29927503  0.19949557     0.33800
H867        H  0.39770475  0.30824927  0.15705522     0.30500
H868        H  0.33053309  0.33733120  0.06041171     0.33800
H869        H  0.34001520  0.31293986  0.09518468     0.30500
H870        H  0.41619559  0.46564785  0.12833750     0.38400
H871        H  0.42530477  0.44194422  0.16363222     0.33900
C872        C  0.42559365  0.42316867  0.57050746     0.42400
N873        N  0.44085732  0.45430788  0.52750884     0.01300
C874        C  0.60396997  0.46222651  0.96185542    -0.06600
H875        H  0.60016675  0.48107613  0.58531837     0.06800
C876        C  0.53198348  0.59179734  0.56308382    -0.06900
Co877      Co  0.50964849  0.43408178  0.50200143     0.74200
N878        N  0.56161107  0.46719270  0.54785847    -0.26100
Co879      Co  0.56578004  0.50832383  0.01611291     0.74100
C880        C  0.56062844  0.58212429  0.58513145     0.42500
N881        N  0.45710804  0.55816470  0.52697619     0.00900
N882        N  0.55608389  0.54442146  0.54414029     0.01000
N883        N  0.56613272  0.41714297  0.95613197    -0.46900
H884        H  0.47528856  0.39128619  0.56975717     0.06800
N885        N  0.54033864  0.44033879  0.54520032     0.01300
N886        N  0.57203910  0.54529107  0.97714606     0.01100
C887        C  0.59149554  0.57510103  0.93466836     0.42700
N888        N  0.43556486  0.53150133  0.52437095    -0.25500
C889        C  0.48115305  0.40853245  0.93526908    -0.06500
N890        N  0.41523288  0.44905194  0.54931510    -0.46600
N891        N  0.59932062  0.54937396  0.95717896    -0.46900
C892        C  0.45335675  0.41770425  0.91184417     0.42400
N893        N  0.55474755  0.44149773  0.97752291     0.01300
N894        N  0.45189584  0.53418379  0.94771547    -0.25600
N895        N  0.46661125  0.43277450  0.53281498    -0.26100
N896        N  0.47347405  0.56064736  0.95167472     0.01000
H897        H  0.41268401  0.52296899  0.91018588     0.06800
H898        H  0.54206849  0.60758628  0.93074129     0.06900
N899        N  0.57639748  0.46789836  0.98167168    -0.26100
N900        N  0.53109395  0.56679618  0.53861466    -0.25700
N901        N  0.45693828  0.45669462  0.95178533     0.01300
C902        C  0.56699954  0.43156573  0.59255618     0.42700
C903        C  0.41104057  0.53513952  0.54825360    -0.07000
N904        N  0.54709467  0.56709797  0.96936499    -0.25700
H905        H  0.51537361  0.61441999  0.56451872     0.06900
N906        N  0.54335971  0.41787046  0.57099805    -0.46900
H907        H  0.39001954  0.51709360  0.55256028     0.06900
C908        C  0.44646465  0.57235109  0.90509032     0.42600
C909        C  0.45926486  0.41191426  0.55959831    -0.06500
Co910      Co  0.44337736  0.49175389  0.48861997     0.73800
N911        N  0.44879969  0.58033595  0.55185225    -0.46700
C912        C  0.59678808  0.42865984  0.94518364     0.42800
N913        N  0.43915935  0.44747133  0.92413258    -0.46600
Co914      Co  0.50138703  0.56662539  0.99690371     0.73900
C915        C  0.55703033  0.58713208  0.94273791    -0.07000
C916        C  0.57953300  0.46398336  0.57706237    -0.06500
N917        N  0.48144656  0.43423492  0.95907275    -0.26100
N918        N  0.57463474  0.55279472  0.57153077    -0.46800
H919        H  0.62646292  0.47881558  0.96033583     0.06800
C920        C  0.43402212  0.53898922  0.91869512    -0.06900
Cl921      Cl  0.50471507  0.49800222  0.49874227    -0.49900
C922        C  0.42025387  0.56733737  0.56662893     0.42600
H923        H  0.49686207  0.38520113  0.93566407     0.06800
N924        N  0.47057365  0.58445781  0.92704944    -0.46700
C925        C  0.57524573  0.92617332  0.58012400     0.42400
N926        N  0.55818246  0.96342896  0.54194539     0.01300
C927        C  0.40848376  0.06154060  0.53988979    -0.06600
H928        H  0.38589178  0.93488408  0.52621248     0.06800
C929        C  0.45355861  0.93814535  0.90843433    -0.06900
Co930      Co  0.49398517  0.00099694  0.56290069     0.74200
N931        N  0.43371875  0.96234422  0.53403738    -0.26100
Co932      Co  0.43576355  0.00028050  0.49471528     0.74100
C933        C  0.42008962  0.92380490  0.91848483     0.42500
N934        N  0.53915017  0.95889517  0.93801901     0.00900
N935        N  0.43707593  0.96094603  0.95690605     0.01000
N936        N  0.44577705  0.06129550  0.58442805    -0.46900
H937        H  0.52740495  0.93642656  0.61390223     0.06800
N938        N  0.45581264  0.96259749  0.55987634     0.01300
N939        N  0.43852483  0.03727252  0.95666204     0.01100
C940        C  0.42366911  0.07382879  0.91681156     0.42700
N941        N  0.56123786  0.95781082  0.96379476    -0.25500
C942        C  0.53934225  0.06262875  0.59013429    -0.06500
N943        N  0.58358188  0.94214710  0.55010791    -0.46600
N944        N  0.41368836  0.05881086  0.94695550    -0.46900
C945        C  0.57243553  0.07792419  0.58045457     0.42400
N946        N  0.45514368  0.03894011  0.55973739     0.01300
N947        N  0.56327942  0.03344967  0.96558950    -0.25600
N948        N  0.53334627  0.96331062  0.56514937    -0.26100
N949        N  0.54165135  0.03527750  0.93954998     0.01000
H950        H  0.61201853  0.05645494  0.97596617     0.06800
H951        H  0.47280948  0.06259246  0.88567884     0.06900
N952        N  0.43342318  0.03839550  0.53360401    -0.26100
N953        N  0.46191148  0.96095644  0.93369305    -0.25700
N954        N  0.55728860  0.03974130  0.54225125     0.01300
C955        C  0.41758476  0.92489570  0.57532667     0.42700
C956        C  0.58613445  0.93497192  0.95552454    -0.07000
N957        N  0.46413161  0.03677693  0.93433718    -0.25700
H958        H  0.46788468  0.93417942  0.88480118     0.06900
N959        N  0.44678972  0.94109349  0.58524991    -0.46900
H960        H  0.60934731  0.93108841  0.97016858     0.06900
C961        C  0.58231362  0.07163150  0.92661780     0.42600
C962        C  0.54169597  0.94039060  0.59025032    -0.06500
Co963      Co  0.56052032  0.00163200  0.50353608     0.73800
N964        N  0.54811254  0.93835287  0.91180373    -0.46700
C965        C  0.41668285  0.07707952  0.57362849     0.42800
N966        N  0.58198110  0.06206423  0.55072534    -0.46600
Co967      Co  0.50177923  0.99805759  0.93603726     0.73900
C968        C  0.45740594  0.05938799  0.90871294    -0.07000
C969        C  0.40889485  0.93888572  0.54123803    -0.06500
N970        N  0.53216607  0.03930464  0.56505980    -0.26100
N971        N  0.41158665  0.93952638  0.94860735    -0.46800
H972        H  0.38585999  0.06418103  0.52415624     0.06800
C973        C  0.58941033  0.05540589  0.96001834    -0.06900
Cl974      Cl  0.49818585  0.00098411  0.49919678    -0.49900
C975        C  0.57746062  0.92214136  0.92078597     0.42600
H976        H  0.52469695  0.06618043  0.61364171     0.06800
N977        N  0.55241367  0.05740522  0.91527701    -0.46700
C978        C  0.92044954  0.41769709  0.57660585     0.42400
N979        N  0.95820670  0.43379731  0.53905263     0.01300
C980        C  0.05506201  0.58819445  0.54362673    -0.06600
H981        H  0.93689661  0.61333225  0.52667103     0.06800
C982        C  0.94184021  0.54152218  0.90716714    -0.06900
Co983      Co  0.99568892  0.49906830  0.56174680     0.74200
N984        N  0.96020967  0.56242648  0.53319598    -0.26100
Co985      Co  0.99838333  0.55995201  0.49505847     0.74100
C986        C  0.92693584  0.57546008  0.91683124     0.42500
N987        N  0.96249484  0.45487278  0.93620792     0.00900
N988        N  0.96329351  0.55969341  0.95563517     0.01000
N989        N  0.05259250  0.54888809  0.58723841    -0.46900
H990        H  0.93173229  0.46750207  0.60972657     0.06800
N991        N  0.95917808  0.53926652  0.55862816     0.01300
N992        N  0.03807867  0.55878314  0.95746284     0.01100
C993        C  0.07859542  0.57159843  0.92163967     0.42700
N994        N  0.96161482  0.43154195  0.96145980    -0.25500
C995        C  0.05327491  0.45094460  0.59069947    -0.06500
N996        N  0.93637598  0.40831468  0.54693182    -0.46600
N997        N  0.06168102  0.58294298  0.95018182    -0.46900
C998        C  0.06712467  0.41610620  0.58251588     0.42400
N999        N  0.03312951  0.53884122  0.56086880     0.01300
N1000       N  0.03533030  0.43100280  0.96361775    -0.25600
N1001       N  0.95826886  0.45949609  0.56206829    -0.26100
N1002       N  0.03644276  0.45366298  0.93786558     0.01000
H1003       H  0.05822655  0.38057617  0.97187642     0.06800
H1004       H  0.06759126  0.52199706  0.88907073     0.06900
N1005       N  0.03375682  0.56179826  0.53529952    -0.26100
N1006       N  0.96402812  0.53404159  0.93254033    -0.25700
N1007       N  0.03250761  0.43247000  0.54197211     0.01300
C1008       C  0.92483530  0.58041662  0.57513191     0.42700
C1009       C  0.93871635  0.40638745  0.95311587    -0.07000
N1010       N  0.03805302  0.53260488  0.93492631    -0.25700
H1011       H  0.93835855  0.52618348  0.88382149     0.06900
N1012       N  0.93885165  0.54933503  0.58426156    -0.46900
H1013       H  0.93433956  0.38244753  0.96755103     0.06900
C1014       C  0.07074464  0.41230731  0.92280658     0.42600
C1015       C  0.93513796  0.45196528  0.58659942    -0.06500
Co1016     Co  0.99616089  0.43081659  0.50144461     0.73800
N1017       N  0.94185634  0.44650789  0.91028422    -0.46700
C1018       C  0.06764469  0.57975134  0.57826606     0.42800
N1019       N  0.05293486  0.40644798  0.55187876    -0.46600
Co1020     Co  0.00025718  0.49384799  0.93504314     0.73900
C1021       C  0.06279474  0.53820146  0.91159131    -0.07000
C1022       C  0.93890360  0.58901802  0.54098380    -0.06500
N1023       N  0.03201114  0.45865156  0.56457963    -0.26100
N1024       N  0.94181783  0.58507631  0.94701960    -0.46800
H1025       H  0.05840185  0.61192361  0.52862255     0.06800
C1026       C  0.05652980  0.40444002  0.95682445    -0.06900
Cl1027     Cl  0.99743216  0.49545250  0.49823245    -0.49900
C1028       C  0.92563764  0.41630189  0.91892646     0.42600
H1029       H  0.05636975  0.46656046  0.61391926     0.06800
N1030       N  0.05697416  0.44316367  0.91255999    -0.46700
C1031       C  0.25359269  0.26103022  0.71849446     0.45400
H1032       H  0.25135545  0.26354380  0.68996572    -0.03600
C1033       C  0.25970800  0.25497726  0.78500203     0.45500
H1034       H  0.26280468  0.25186745  0.81337259    -0.03600
C1035       C  0.27984838  0.28657678  0.73432697    -0.17300
C1036       C  0.22013629  0.26882782  0.73806143    -0.17000
C1037       C  0.26600901  0.22434825  0.72985014    -0.17400
C1038       C  0.28349248  0.28308991  0.76938579    -0.17400
C1039       C  0.22348632  0.26626479  0.77356577    -0.17000
C1040       C  0.26884622  0.22111718  0.76521856    -0.17300
C1041       C  0.73562825  0.25207650  0.71894788     0.45400
H1042       H  0.72994973  0.25094902  0.69087275    -0.03600
C1043       C  0.74767850  0.25254775  0.78471418     0.45500
H1044       H  0.75308537  0.25261025  0.81293894    -0.03600
C1045       C  0.71354681  0.27839977  0.73919359    -0.17300
C1046       C  0.72843927  0.21660707  0.73645516    -0.17000
C1047       C  0.77247301  0.26362475  0.72765996    -0.17400
C1048       C  0.71961767  0.27846811  0.77413878    -0.17400
C1049       C  0.73477369  0.21666102  0.77149261    -0.17000
C1050       C  0.77871056  0.26355730  0.76286100    -0.17300
C1051       C  0.25769308  0.74148804  0.71390231     0.45400
H1052       H  0.25775500  0.74317371  0.68528433    -0.03600
C1053       C  0.25787137  0.73776896  0.78083551     0.45500
H1054       H  0.25774387  0.73571611  0.80951713    -0.03600
C1055       C  0.28502969  0.71675571  0.72826222    -0.17300
C1056       C  0.26578085  0.77708468  0.73166052    -0.17000
C1057       C  0.22400680  0.72655404  0.72882714    -0.17400
C1058       C  0.28574731  0.71557850  0.76361712    -0.17400
C1059       C  0.26548749  0.77518402  0.76749021    -0.17000
C1060       C  0.22436130  0.72464654  0.76443601    -0.17300
C1061       C  0.74893171  0.74495716  0.71514537     0.45400
H1062       H  0.75012792  0.74369832  0.68650376    -0.03600
C1063       C  0.74721799  0.74861562  0.78200643     0.45500
H1064       H  0.74669706  0.75057194  0.81067593    -0.03600
C1065       C  0.72346096  0.71883771  0.73171996    -0.17300
C1066       C  0.78358125  0.73652635  0.73239130    -0.17000
C1067       C  0.73646723  0.78095013  0.72824282    -0.17400
C1068       C  0.72308704  0.72041883  0.76727004    -0.17400
C1069       C  0.78259726  0.73761776  0.76808922    -0.17000
C1070       C  0.73562557  0.78284131  0.76390053    -0.17300
C1071       C  0.19749096  0.70882122  0.70636664    -0.19900
C1072       C  0.20674279  0.68758184  0.67764154     0.36300
C1073       C  0.18160736  0.67028796  0.65823150    -0.25900
C1074       C  0.14710610  0.67226152  0.66714082     0.02800
C1075       C  0.13727825  0.69307991  0.69589864     0.27600
C1076       C  0.16250743  0.71153679  0.71472078    -0.25000
N1077       N  0.24169740  0.68158467  0.66880633    -0.82400
H1078       H  0.18932930  0.65397200  0.63654236     0.13400
C1079       C  0.12295112  0.65048002  0.64654235     0.02700
N1080       N  0.10224323  0.69614398  0.70672307    -0.80900
H1081       H  0.15468366  0.72774233  0.73640163     0.18200
C1082       C  0.11678939  0.61562463  0.65655517    -0.25800
C1083       C  0.09901412  0.59199914  0.63482100     0.36200
C1084       C  0.08667348  0.60367296  0.60239476    -0.19800
C1085       C  0.09234926  0.63904381  0.59294676    -0.25100
C1086       C  0.11046130  0.66242385  0.61458866     0.27600
H1087       H  0.12714872  0.60646701  0.68089027     0.13400
N1088       N  0.09430054  0.55605425  0.64531946    -0.82300
H1089       H  0.08295316  0.64867308  0.56847429     0.18200
N1090       N  0.11714593  0.69799181  0.60385436    -0.83100
H1091       H  0.10425391  0.55204898  0.67008872     0.33800
H1092       H  0.10864162  0.54033941  0.62852288     0.38300
H1093       H  0.10662316  0.70264431  0.57946333     0.33800
H1094       H  0.10457161  0.71471559  0.62118087     0.30500
H1095       H  0.10024246  0.68503047  0.73137419     0.33800
H1096       H  0.08589097  0.68180821  0.69063208     0.30500
H1097       H  0.24561982  0.68976152  0.64330237     0.38400
H1098       H  0.24619365  0.65449910  0.66990700     0.33900
C1099       C  0.20063182  0.70255963  0.78554752    -0.19900
C1100       C  0.19940307  0.66568078  0.78160334     0.36300
C1101       C  0.17894175  0.64533380  0.80385028    -0.25900
C1102       C  0.15965627  0.66098368  0.83042993     0.02800
C1103       C  0.16101420  0.69797284  0.83451246     0.27600
C1104       C  0.18181371  0.71827578  0.81228116    -0.25000
N1105       N  0.21983188  0.64864429  0.75579890    -0.82400
H1106       H  0.17871131  0.61698302  0.80078695     0.13400
C1107       C  0.13865539  0.63818486  0.85389195     0.02700
N1108       N  0.14115737  0.71478854  0.86108694    -0.80900
H1109       H  0.18335962  0.74653779  0.81574999     0.18200
C1110       C  0.14284806  0.64047756  0.89000376    -0.25800
C1111       C  0.12370610  0.61900905  0.91273972     0.36200
C1112       C  0.10031925  0.59423190  0.89908751    -0.19800
C1113       C  0.09656257  0.59162047  0.86301647    -0.25100
C1114       C  0.11489227  0.61367428  0.84038760     0.27600
H1115       H  0.16136502  0.65890425  0.90048484     0.13400
N1116       N  0.12819136  0.62205149  0.94952950    -0.82300
H1117       H  0.07827215  0.57310933  0.85231813     0.18200
N1118       N  0.10886974  0.61180723  0.80373275    -0.80900
H1119       H  0.14610960  0.64169486  0.95535860     0.33800
H1120       H  0.13843070  0.59835612  0.95833231     0.38300
H1121       H  0.09068000  0.59241654  0.79798080     0.33800
H1122       H  0.09835323  0.63581606  0.79613492     0.30500
H1123       H  0.14518851  0.74200721  0.86080723     0.33800
H1124       H  0.11536105  0.71064171  0.85525767     0.30500
H1125       H  0.20350582  0.63427521  0.73961443     0.38400
H1126       H  0.23598689  0.63086804  0.76821013     0.33900
C1127       C  0.08881067  0.38672701  0.90026233    -0.19900
C1128       C  0.08815821  0.38862318  0.86367644     0.36300
C1129       C  0.10603967  0.36337128  0.84408534    -0.25900
C1130       C  0.12402584  0.33620184  0.86028746     0.02800
C1131       C  0.12339665  0.33340041  0.89656437     0.27600
C1132       C  0.10606025  0.35875776  0.91613922    -0.25000
N1133       N  0.06963291  0.41606350  0.84650811    -0.82400
H1134       H  0.10694416  0.36552496  0.81614190     0.13400
C1135       C  0.14824437  0.31477711  0.83983994     0.02700
N1136       N  0.14130324  0.30526191  0.91334432    -0.80900
H1137       H  0.10665053  0.35691081  0.94406993     0.18200
C1138       C  0.18303040  0.31962874  0.84629379    -0.25800
C1139       C  0.20778706  0.30302455  0.82613750     0.36200
C1140       C  0.19781008  0.28041420  0.79873643    -0.19800
C1141       C  0.16268327  0.27383520  0.79366839    -0.25100
C1142       C  0.13772812  0.29121951  0.81370602     0.27600
H1143       H  0.19115350  0.33772768  0.86644505     0.13400
N1144       N  0.24293055  0.31084427  0.83294858    -0.82300
H1145       H  0.15471295  0.25591623  0.77335551     0.18200
N1146       N  0.10195100  0.28544975  0.80740045    -0.80900
H1147       H  0.24626183  0.33809519  0.83159912     0.33800
H1148       H  0.24833733  0.30312668  0.85829071     0.38300
H1149       H  0.09853219  0.26748160  0.78715100     0.33800
H1150       H  0.09153986  0.27380364  0.82954318     0.30500
H1151       H  0.13867231  0.30707218  0.94021210     0.33800
H1152       H  0.12961149  0.28164786  0.90585746     0.30500
H1153       H  0.04363504  0.41189548  0.85140626     0.38400
H1154       H  0.07271861  0.41419067  0.81967911     0.33900
C1155       C  0.19112513  0.28618925  0.71924464    -0.19900
C1156       C  0.17537882  0.27042258  0.69001441     0.36300
C1157       C  0.15395251  0.29063849  0.66860257    -0.25900
C1158       C  0.14796740  0.32660103  0.67500834     0.02800
C1159       C  0.16270028  0.34187326  0.70505135     0.27600
C1160       C  0.18315226  0.32131797  0.72714082    -0.25000
N1161       N  0.18056591  0.23404812  0.68113632    -0.82400
H1162       H  0.14198312  0.27800261  0.64655728     0.13400
C1163       C  0.12627844  0.34794018  0.65045305     0.02700
N1164       N  0.15832652  0.37871717  0.71222430    -0.80900
H1165       H  0.19519594  0.33370429  0.74928903     0.18200
C1166       C  0.10052530  0.36982954  0.66382684    -0.25800
C1167       C  0.08089170  0.39188127  0.64237235     0.36200
C1168       C  0.08647139  0.39200031  0.60614985    -0.19800
C1169       C  0.11087582  0.36875419  0.59241246    -0.25100
C1170       C  0.13111279  0.34718117  0.61404370     0.27600
H1171       H  0.09549742  0.36962150  0.69138872     0.13400
N1172       N  0.05475851  0.41357439  0.65739189    -0.82300
H1173       H  0.11498374  0.36827692  0.56468549     0.18200
N1174       N  0.15704475  0.32515938  0.59910348    -0.80900
H1175       H  0.05421230  0.41083310  0.68429922     0.33800
H1176       H  0.03119131  0.40441158  0.64825300     0.38300
H1177       H  0.15716658  0.32737772  0.57214387     0.33800
H1178       H  0.18075312  0.33443648  0.60773594     0.30500
H1179       H  0.17064472  0.38581046  0.73521210     0.33800
H1180       H  0.17039255  0.39273587  0.69238013     0.30500
H1181       H  0.19535715  0.22123668  0.69963649     0.38400
H1182       H  0.15668372  0.22159432  0.68172806     0.33900
C1183       C  0.89920969  0.39270962  0.59745203    -0.19900
C1184       C  0.88752505  0.40057215  0.63126414     0.36300
C1185       C  0.86981145  0.37500466  0.65039351    -0.25900
C1186       C  0.86257625  0.34185531  0.63636936     0.02800
C1187       C  0.87278338  0.33405275  0.60232056     0.27600
C1188       C  0.89131597  0.35936595  0.58332086    -0.25000
N1189       N  0.89290252  0.43450095  0.64640778    -0.82400
H1190       H  0.86089192  0.38139271  0.67622317     0.13400
C1191       C  0.84083061  0.31744373  0.65658255     0.02700
N1192       N  0.86365897  0.30079416  0.58704595    -0.80900
H1193       H  0.89949887  0.35296562  0.55727513     0.18200
C1194       C  0.80557074  0.32048469  0.65270468    -0.25800
C1195       C  0.78289317  0.30263092  0.67454361     0.36200
C1196       C  0.79557293  0.28076806  0.70134964    -0.19800
C1197       C  0.83119052  0.27614655  0.70371675    -0.25100
C1198       C  0.85397034  0.29411415  0.68167525     0.27600
H1199       H  0.79544332  0.33815804  0.63330762     0.13400
N1200       N  0.74714212  0.30839646  0.66981118    -0.82300
H1201       H  0.84150929  0.25873097  0.72318380     0.18200
N1202       N  0.89003232  0.28845057  0.68591467    -0.80900
H1203       H  0.74060442  0.30009626  0.64485352     0.33800
H1204       H  0.74265057  0.33544461  0.67133968     0.38300
H1205       H  0.89473146  0.26191310  0.68058971     0.33800
H1206       H  0.90429392  0.30281972  0.66795642     0.30500
H1207       H  0.87267135  0.29927532  0.56158963     0.33800
H1208       H  0.87610699  0.28111726  0.60094258     0.30500
H1209       H  0.86904089  0.44517433  0.65250435     0.38400
H1210       H  0.90650149  0.43125987  0.66943103     0.33900
C1211       C  0.90467327  0.39426489  0.89471852    -0.19900
C1212       C  0.90693774  0.39791664  0.85826846     0.36300
C1213       C  0.88765673  0.37549201  0.83665176    -0.25900
C1214       C  0.86549901  0.34988620  0.85026615     0.02800
C1215       C  0.86302440  0.34626755  0.88656030     0.27600
C1216       C  0.88284653  0.36819212  0.90830086    -0.25000
N1217       N  0.92939489  0.42366785  0.84308000    -0.82400
H1218       H  0.88982842  0.37806810  0.80881736     0.13400
C1219       C  0.84476854  0.32764000  0.82602001     0.02700
N1220       N  0.84007040  0.32066934  0.90122950    -0.80900
H1221       H  0.88080764  0.36522266  0.93608785     0.18200
C1222       C  0.84652820  0.29074010  0.82778035    -0.25800
C1223       C  0.82651179  0.26935427  0.80590573     0.36200
C1224       C  0.80559395  0.28476185  0.78062280    -0.19800
C1225       C  0.80448987  0.32156114  0.77813630    -0.25100
C1226       C  0.82305450  0.34313460  0.80117583     0.27600
H1227       H  0.86293416  0.27845851  0.84674924     0.13400
N1228       N  0.82668126  0.23192471  0.81001249    -0.82300
H1229       H  0.78709212  0.33346155  0.75986391     0.18200
N1230       N  0.81863237  0.38065470  0.80058935    -0.80900
H1231       H  0.85181153  0.22321137  0.80692698     0.33800
H1232       H  0.81894289  0.22620529  0.83529607     0.38300
H1233       H  0.80733236  0.38795311  0.82409759     0.33800
H1234       H  0.80149343  0.38780340  0.78117282     0.30500
H1235       H  0.84129200  0.32124880  0.92824784     0.33800
H1236       H  0.81518883  0.32788019  0.89453907     0.30500
H1237       H  0.91879433  0.44840466  0.84782571     0.38400
H1238       H  0.93012633  0.42083611  0.81616420     0.33900
C1239       C  0.90579411  0.59923411  0.89493825    -0.19900
C1240       C  0.88753090  0.62770556  0.90952093     0.36300
C1241       C  0.86922823  0.65058054  0.88780763    -0.25900
C1242       C  0.86860048  0.64573059  0.85182023     0.02800
C1243       C  0.88629934  0.61710562  0.83717128     0.27600
C1244       C  0.90473472  0.59419289  0.85882734    -0.25000
N1245       N  0.88732675  0.63318226  0.94634231    -0.82400
H1246       H  0.85505513  0.67224331  0.89900919     0.13400
C1247       C  0.84717103  0.66946264  0.83030712     0.02700
N1248       N  0.88533425  0.61136301  0.80040581    -0.80900
H1249       H  0.91864902  0.57258753  0.84727908     0.18200
C1250       C  0.86228893  0.69486534  0.80867189    -0.25800
C1251       C  0.84204553  0.71814516  0.78900825     0.36200
C1252       C  0.80600754  0.71591339  0.79061817    -0.19800
C1253       C  0.79139927  0.69098584  0.81323590    -0.25100
C1254       C  0.81134201  0.66747418  0.83240239     0.27600
H1255       H  0.88990008  0.69688018  0.80733578     0.13400
N1256       N  0.85820127  0.74452548  0.76821147    -0.82300
H1257       H  0.76415732  0.68902887  0.81579195     0.18200
N1258       N  0.79528456  0.64126389  0.85384615    -0.80900
H1259       H  0.87450388  0.73189536  0.75073188     0.33800
H1260       H  0.87325747  0.76025471  0.78443311     0.38300
H1261       H  0.76866007  0.64332861  0.85267708     0.33800
H1262       H  0.80140511  0.61660141  0.84356561     0.30500
H1263       H  0.89981059  0.58931592  0.79366578     0.33800
H1264       H  0.86004484  0.60557813  0.79365187     0.30500
H1265       H  0.87477665  0.61170326  0.95757436     0.38400
H1266       H  0.87308698  0.65547739  0.95279820     0.33900
C1267       C  0.90722629  0.60504825  0.59955041    -0.19900
C1268       C  0.91495114  0.60588847  0.63536635     0.36300
C1269       C  0.89819975  0.63011196  0.65720171    -0.25900
C1270       C  0.87261803  0.65243366  0.64466729     0.02800
C1271       C  0.86535841  0.65220793  0.60886738     0.27600
C1272       C  0.88315527  0.62902477  0.58664665    -0.25000
N1273       N  0.94022977  0.58271052  0.64952879    -0.82400
H1274       H  0.90461071  0.63103691  0.68444158     0.13400
C1275       C  0.85218980  0.67425124  0.66948212     0.02700
N1276       N  0.83947164  0.67505875  0.59532260    -0.80900
H1277       H  0.87743186  0.62891301  0.55922992     0.18200
C1278       C  0.85194542  0.71116757  0.66645391    -0.25800
C1279       C  0.83050456  0.73196228  0.68750943     0.36200
C1280       C  0.80921097  0.71586930  0.71227627    -0.19800
C1281       C  0.80987208  0.67916968  0.71575168    -0.25100
C1282       C  0.83095850  0.65833681  0.69482674     0.27600
H1283       H  0.86799364  0.72382975  0.64724503     0.13400
N1284       N  0.83028645  0.76941625  0.68367861    -0.82300
H1285       H  0.79294697  0.66645921  0.73416168     0.18200
N1286       N  0.82883977  0.62092214  0.69871652    -0.80900
H1287       H  0.85512249  0.77873377  0.68792995     0.33800
H1288       H  0.82365820  0.77515605  0.65812355     0.38300
H1289       H  0.85255936  0.61146170  0.70668396     0.33800
H1290       H  0.82266640  0.60974508  0.67478048     0.30500
H1291       H  0.83721428  0.67180931  0.56855433     0.33800
H1292       H  0.81606176  0.66735176  0.60607490     0.30500
H1293       H  0.92974987  0.55734203  0.64948153     0.38400
H1294       H  0.94493033  0.58882756  0.67546695     0.33900
C1295       C  0.60689019  0.09184658  0.90471421    -0.19900
C1296       C  0.63653940  0.10805009  0.91867971     0.36300
C1297       C  0.65994390  0.12491404  0.89675786    -0.25900
C1298       C  0.65405386  0.12717281  0.86117694     0.02800
C1299       C  0.62458067  0.11146696  0.84691774     0.27600
C1300       C  0.60134729  0.09382288  0.86879439    -0.25000
N1301       N  0.64280476  0.10849199  0.95514931    -0.82400
H1302       H  0.68247843  0.13728970  0.90778193     0.13400
C1303       C  0.67706957  0.14924236  0.83983967     0.02700
N1304       N  0.61830795  0.11376964  0.81035504    -0.80900
H1305       H  0.57885363  0.08153965  0.85767139     0.18200
C1306       C  0.69875158  0.13380305  0.81513932    -0.25800
C1307       C  0.71959074  0.15461599  0.79353901     0.36200
C1308       C  0.71794299  0.19180334  0.79625571    -0.19800
C1309       C  0.69710994  0.20665224  0.82211756    -0.25100
C1310       C  0.67671397  0.18607457  0.84349294     0.27600
H1311       H  0.69955906  0.10540794  0.81273914     0.13400
N1312       N  0.74269577  0.13709570  0.77034142    -0.82300
H1313       H  0.69510831  0.23479750  0.82499112     0.18200
N1314       N  0.65470304  0.20350792  0.86770904    -0.80900
H1315       H  0.72809687  0.12388718  0.75174108     0.33800
H1316       H  0.75861641  0.15493471  0.75750231     0.38300
H1317       H  0.66137718  0.19598099  0.89274736     0.33800
H1318       H  0.62948478  0.19568637  0.86290155     0.30500
H1319       H  0.59564588  0.10060428  0.80388665     0.33800
H1320       H  0.61459532  0.14026484  0.80435025     0.30500
H1321       H  0.66641955  0.09654394  0.95962035     0.38400
H1322       H  0.64456681  0.13469471  0.96327905     0.33900
C1323       C  0.59699761  0.09576659  0.60381753    -0.19900
C1324       C  0.62160978  0.11987148  0.59119348     0.36300
C1325       C  0.64472600  0.13569466  0.61444212    -0.25900
C1326       C  0.64439026  0.12711680  0.64974803     0.02800
C1327       C  0.62065560  0.10205811  0.66206930     0.27600
C1328       C  0.59684833  0.08710985  0.63911579    -0.25000
N1329       N  0.62230262  0.12916621  0.55515204    -0.82400
H1330       H  0.66274470  0.15524940  0.60512078     0.13400
C1331       C  0.66686298  0.14684131  0.67401949     0.02700
N1332       N  0.62100164  0.09182956  0.69785541    -0.80900
H1333       H  0.57864221  0.06791940  0.64874665     0.18200
C1334       C  0.65158392  0.16619011  0.70067488    -0.25800
C1335       C  0.67083345  0.18791201  0.72246691     0.36200
C1336       C  0.70682306  0.19032849  0.71778538    -0.19800
C1337       C  0.72221043  0.17042949  0.69140761    -0.25100
C1338       C  0.70265268  0.14831601  0.66974728     0.27600
H1339       H  0.62402017  0.16556906  0.70371416     0.13400
N1340       N  0.65239677  0.20848724  0.74738665    -0.82300
H1341       H  0.74958568  0.17253010  0.68747892     0.18200
N1342       N  0.71887635  0.12758815  0.64331783    -0.80900
H1343       H  0.64201322  0.19118045  0.76566154     0.33800
H1344       H  0.66836840  0.22564820  0.76055970     0.38300
H1345       H  0.74531289  0.13165660  0.64358441     0.33800
H1346       H  0.71480698  0.10109088  0.64943394     0.30500
H1347       H  0.60192834  0.07311181  0.70279711     0.33800
H1348       H  0.64437990  0.07954458  0.70258578     0.30500
H1349       H  0.63080945  0.10722088  0.54130575     0.38400
H1350       H  0.64036482  0.14900837  0.55066783     0.33900
C1351       C  0.39388716  0.09896530  0.59601360    -0.19900
C1352       C  0.36626577  0.11822503  0.58215836     0.36300
C1353       C  0.34386180  0.13626685  0.60426343    -0.25900
C1354       C  0.34889941  0.13671566  0.64008462     0.02800
C1355       C  0.37697056  0.11866273  0.65421947     0.27600
C1356       C  0.39906588  0.09975658  0.63209281    -0.25000
N1357       N  0.36125158  0.12059157  0.54557883    -0.82400
H1358       H  0.32275595  0.15080989  0.59325405     0.13400
C1359       C  0.32626862  0.15882237  0.66195495     0.02700
N1360       N  0.38293965  0.11975278  0.69090457    -0.80900
H1361       H  0.42027365  0.08544717  0.64313819     0.18200
C1362       C  0.30110379  0.14326050  0.68306253    -0.25800
C1363       C  0.27998204  0.16411138  0.70440039     0.36200
C1364       C  0.28430748  0.20095971  0.70486972    -0.19800
C1365       C  0.30854588  0.21623414  0.68260933    -0.25100
C1366       C  0.32965203  0.19576100  0.66167099     0.27600
H1367       H  0.29791135  0.11492708  0.68300173     0.13400
N1368       N  0.25395807  0.14793207  0.72512858    -0.82300
H1369       H  0.31207725  0.24436384  0.68210490     0.18200
N1370       N  0.35513974  0.21317648  0.64116787    -0.80900
H1371       H  0.26565360  0.12973362  0.74145012     0.33800
H1372       H  0.23748690  0.13411642  0.70862825     0.38300
H1373       H  0.35068181  0.20749487  0.61510962     0.33800
H1374       H  0.37911310  0.20334308  0.64798838     0.30500
H1375       H  0.40459714  0.10512298  0.69722651     0.33800
H1376       H  0.38834948  0.14585146  0.69769141     0.30500
H1377       H  0.33677590  0.11103355  0.53990673     0.38400
H1378       H  0.36223176  0.14714569  0.53862548     0.33900
C1379       C  0.28940090  0.19363563  0.78326242    -0.19900
C1380       C  0.27556238  0.17335475  0.81063799     0.36300
C1381       C  0.29742409  0.15299947  0.83127437    -0.25900
C1382       C  0.33296288  0.15252198  0.82570768     0.02800
C1383       C  0.34660466  0.17184345  0.79760745     0.27600
C1384       C  0.32466227  0.19171936  0.77651566    -0.25000
N1385       N  0.23959496  0.17296419  0.81848188    -0.82400
H1386       H  0.28651015  0.13762167  0.85215368     0.13400
C1387       C  0.35556402  0.13195823  0.84951483     0.02700
N1388       N  0.38286533  0.17240981  0.79142482    -0.80900
H1389       H  0.33551378  0.20776690  0.75609445     0.18200
C1390       C  0.37866078  0.10755726  0.83557254    -0.25800
C1391       C  0.40092544  0.08819942  0.85679771     0.36200
C1392       C  0.40024419  0.09322084  0.89313451    -0.19800
C1393       C  0.37634862  0.11675161  0.90721804    -0.25100
C1394       C  0.35440801  0.13652350  0.88585879     0.27600
H1395       H  0.37905154  0.10327695  0.80784979     0.13400
N1396       N  0.42348644  0.06280892  0.84144962    -0.82300
H1397       H  0.37542883  0.12042264  0.93501772     0.18200
N1398       N  0.33148984  0.16176679  0.90092171    -0.80900
H1399       H  0.41563093  0.03790543  0.84983219     0.33800
H1400       H  0.42121705  0.06278735  0.81450610     0.38300
H1401       H  0.33365768  0.16188080  0.92788323     0.33800
H1402       H  0.33913847  0.18670519  0.89247260     0.30500
H1403       H  0.38872849  0.18777890  0.76978045     0.33800
H1404       H  0.39444430  0.18465168  0.81265788     0.30500
H1405       H  0.22572907  0.18817949  0.80105515     0.38400
H1406       H  0.23086415  0.14712427  0.81520546     0.33900
C1407       C  0.71587212  0.80454209  0.70479076    -0.19900
C1408       C  0.71653621  0.84168289  0.70752077     0.36300
C1409       C  0.69397524  0.86204422  0.68727038    -0.25900
C1410       C  0.67151389  0.84614728  0.66351997     0.02800
C1411       C  0.67188438  0.80935167  0.65958700     0.27600
C1412       C  0.69391209  0.78907615  0.68009836    -0.25000
N1413       N  0.74020960  0.85858657  0.73063363    -0.82400
H1414       H  0.69401159  0.89043510  0.68983263     0.13400
C1415       C  0.64740352  0.86790696  0.64284761     0.02700
N1416       N  0.64948569  0.79265772  0.63498322    -0.80900
H1417       H  0.69299338  0.76086555  0.67721966     0.18200
C1418       C  0.65374239  0.87319643  0.60754503    -0.25800
C1419       C  0.63039546  0.89146183  0.58651404     0.36200
C1420       C  0.59991437  0.90515391  0.60118684    -0.19800
C1421       C  0.59373054  0.89972649  0.63667545    -0.25100
C1422       C  0.61704291  0.88112660  0.65753944     0.27600
H1423       H  0.67687228  0.86252420  0.59625752     0.13400
N1424       N  0.63754204  0.89580064  0.55026041    -0.82300
H1425       H  0.57071286  0.91009065  0.64835494     0.18200
N1426       N  0.60992230  0.87534705  0.69358232    -0.80900
H1427       H  0.66125075  0.88495769  0.54384831     0.33800
H1428       H  0.61916538  0.88140569  0.53653666     0.38300
H1429       H  0.58667158  0.88685714  0.70053355     0.33800
H1430       H  0.60695915  0.84824594  0.69721023     0.30500
H1431       H  0.65324763  0.76544620  0.63472973     0.33800
H1432       H  0.62435671  0.79676987  0.64327000     0.30500
H1433       H  0.76488929  0.85293638  0.72188330     0.38400
H1434       H  0.73750884  0.88591748  0.72964621     0.33900
C1435       C  0.59993038  0.90220214  0.89638601    -0.19900
C1436       C  0.59738086  0.90607149  0.86001405     0.36300
C1437       C  0.61901192  0.88652648  0.83807369    -0.25900
C1438       C  0.64359435  0.86348146  0.85139965     0.02800
C1439       C  0.64630636  0.85972082  0.88768219     0.27600
C1440       C  0.62470819  0.87928760  0.90969953    -0.25000
N1441       N  0.57360326  0.93056978  0.84534612    -0.82400
H1442       H  0.61729192  0.88998126  0.81031486     0.13400
C1443       C  0.66695131  0.84431665  0.82713044     0.02700
N1444       N  0.67074466  0.83571809  0.90203795    -0.80900
H1445       H  0.62690478  0.87617346  0.93745265     0.18200
C1446       C  0.70255107  0.84700418  0.83164771    -0.25800
C1447       C  0.72541070  0.82819981  0.81041792     0.36200
C1448       C  0.71261087  0.80707981  0.78340900    -0.19800
C1449       C  0.67711514  0.80544265  0.77784824    -0.25100
C1450       C  0.65413707  0.82334002  0.79972974     0.27600
H1451       H  0.71254033  0.86353783  0.85217846     0.13400
N1452       N  0.76161218  0.82996938  0.81648885    -0.82300
H1453       H  0.66721008  0.78833767  0.75770705     0.18200
N1454       N  0.61787973  0.81905172  0.79514652    -0.80900
H1455       H  0.76696094  0.84648875  0.83747797     0.33800
H1456       H  0.77296048  0.84152976  0.79477741     0.38300
H1457       H  0.61271611  0.80272023  0.77393902     0.33800
H1458       H  0.60835194  0.80609289  0.81697854     0.30500
H1459       H  0.66970278  0.83612247  0.92906752     0.33800
H1460       H  0.66372094  0.81031915  0.89428119     0.30500
H1461       H  0.58166765  0.95586032  0.85239538     0.38400
H1462       H  0.57440401  0.92960339  0.81831420     0.33900
C1463       C  0.39527468  0.90400907  0.89666153    -0.19900
C1464       C  0.36808347  0.88463959  0.91165441     0.36300
C1465       C  0.34444585  0.86720017  0.89012892    -0.25900
C1466       C  0.34733274  0.86862003  0.85397721     0.02800
C1467       C  0.37405762  0.88832759  0.83892383     0.27600
C1468       C  0.39778586  0.90579371  0.86040326    -0.25000
N1469       N  0.36488429  0.88218070  0.94864449    -0.82400
H1470       H  0.32411351  0.85158971  0.90155002     0.13400
C1471       C  0.32501541  0.84554042  0.83255549     0.02700
N1472       N  0.37722832  0.89010312  0.80190678    -0.80900
H1473       H  0.41816469  0.92104528  0.84869105     0.18200
C1474       C  0.29991020  0.85971342  0.81073603    -0.25800
C1475       C  0.27884733  0.83781325  0.79024218     0.36200
C1476       C  0.28360316  0.80078684  0.79102747    -0.19800
C1477       C  0.30858201  0.78715804  0.81347598    -0.25100
C1478       C  0.32928226  0.80891491  0.83390406     0.27600
H1479       H  0.29639650  0.88795880  0.80994469     0.13400
N1480       N  0.25256562  0.85404823  0.76995161    -0.82300
H1481       H  0.31313088  0.75925951  0.81447982     0.18200
N1482       N  0.35522055  0.79394866  0.85565956    -0.80900
H1483       H  0.26451217  0.86851882  0.75035666     0.33800
H1484       H  0.23672157  0.83541602  0.75815267     0.38300
H1485       H  0.35495401  0.76647126  0.85396098     0.33800
H1486       H  0.37897009  0.80223661  0.84619198     0.30500
H1487       H  0.39808083  0.90589660  0.79492580     0.33800
H1488       H  0.38251070  0.86476646  0.79283393     0.30500
H1489       H  0.38613025  0.86849050  0.95780484     0.38400
H1490       H  0.34334451  0.86729032  0.95541591     0.33900
C1491       C  0.28572074  0.80376469  0.71127153    -0.19900
C1492       C  0.27291494  0.81711198  0.67992042     0.36300
C1493       C  0.29408494  0.83750202  0.65825596    -0.25900
C1494       C  0.32859481  0.84384856  0.66654441     0.02800
C1495       C  0.34154947  0.83030283  0.69790632     0.27600
C1496       C  0.31990122  0.81112593  0.72003137    -0.25000
N1497       N  0.23845075  0.80959489  0.66975268    -0.82400
H1498       H  0.28353267  0.84807328  0.63459455     0.13400
C1499       C  0.35090338  0.86464996  0.64246699     0.02700
N1500       N  0.37704843  0.83479280  0.70660126    -0.80900
H1501       H  0.33060937  0.80032018  0.74334513     0.18200
C1502       C  0.37076000  0.89248340  0.65572140    -0.25800
C1503       C  0.39296862  0.91191006  0.63445247     0.36200
C1504       C  0.39488119  0.90439216  0.59873906    -0.19800
C1505       C  0.37433615  0.87734916  0.58511542    -0.25100
C1506       C  0.35294610  0.85689093  0.60665598     0.27600
H1507       H  0.36900014  0.89933736  0.68289534     0.13400
N1508       N  0.41283964  0.93991127  0.64920674    -0.82300
H1509       H  0.37571946  0.87151334  0.55769199     0.18200
N1510       N  0.33390615  0.82785004  0.59239985    -0.80900
H1511       H  0.39609672  0.95785114  0.66068343     0.33800
H1512       H  0.42816989  0.92931578  0.66869002     0.38300
H1513       H  0.33816392  0.82575074  0.56574814     0.33800
H1514       H  0.34330235  0.80480667  0.60351040     0.30500
H1515       H  0.38244926  0.82342718  0.73056534     0.33800
H1516       H  0.39139649  0.82106833  0.68817399     0.30500
H1517       H  0.23917216  0.79657724  0.64588359     0.38400
H1518       H  0.22583202  0.83349299  0.66626542     0.33900
C1519       C  0.42634844  0.59518834  0.88259433    -0.19900
C1520       C  0.41619290  0.62899829  0.89374351     0.36300
C1521       C  0.39470559  0.64887047  0.87260381    -0.25900
C1522       C  0.38282587  0.63520946  0.84123637     0.02800
C1523       C  0.39319580  0.60175859  0.82979884     0.27600
C1524       C  0.41482949  0.58182645  0.85085020    -0.25000
N1525       N  0.42643521  0.64237555  0.92702024    -0.82400
H1526       H  0.38625825  0.67463652  0.88103052     0.13400
C1527       C  0.35809152  0.65571950  0.82148585     0.02700
N1528       N  0.38180046  0.58838260  0.79691899    -0.80900
H1529       H  0.42250443  0.55571822  0.84270350     0.18200
C1530       C  0.37010268  0.67997044  0.79728684    -0.25800
C1531       C  0.34741414  0.70077089  0.77866526     0.36200
C1532       C  0.31162458  0.69620954  0.78381314    -0.19800
C1533       C  0.29985602  0.67243669  0.80880069    -0.25100
C1534       C  0.32284654  0.65215367  0.82787479     0.27600
H1535       H  0.39739741  0.68326127  0.79338842     0.13400
N1536       N  0.36184418  0.72711726  0.75632164    -0.82300
H1537       H  0.27262423  0.66939289  0.81311276     0.18200
N1538       N  0.31071287  0.62836602  0.85407019    -0.80900
H1539       H  0.37417002  0.71422543  0.73588900     0.33800
H1540       H  0.34323946  0.74313629  0.74572764     0.38300
H1541       H  0.28406796  0.62938725  0.85594792     0.33800
H1542       H  0.31677959  0.60280806  0.84622925     0.30500
H1543       H  0.39209659  0.56349150  0.79224033     0.33800
H1544       H  0.35527950  0.58505944  0.79816571     0.30500
H1545       H  0.41497066  0.62649265  0.94587812     0.38400
H1546       H  0.41702785  0.66776650  0.93092533     0.33900
C1547       C  0.30573351  0.69347204  0.70610636    -0.19900
C1548       C  0.32382287  0.70648024  0.67739217     0.36300
C1549       C  0.34181652  0.68311505  0.65635015    -0.25900
C1550       C  0.34222845  0.64706288  0.66384198     0.02800
C1551       C  0.32465818  0.63395803  0.69285611     0.27600
C1552       C  0.30605986  0.65730377  0.71343273    -0.25000
N1553       N  0.32474526  0.74335603  0.67005410    -0.82400
H1554       H  0.35573260  0.69314501  0.63415568     0.13400
C1555       C  0.36234546  0.62382706  0.64152644     0.02700
N1556       N  0.32605385  0.59719677  0.70139206    -0.80900
H1557       H  0.29153615  0.64721693  0.73513894     0.18200
C1558       C  0.39742009  0.63030821  0.63841062    -0.25800
C1559       C  0.41730033  0.61099014  0.61517524     0.36200
C1560       C  0.40141044  0.58494440  0.59448380    -0.19800
C1561       C  0.36654082  0.57733689  0.59895157    -0.25100
C1562       C  0.34679839  0.59685271  0.62214714     0.27600
H1563       H  0.40915707  0.65090021  0.65387567     0.13400
N1564       N  0.45336019  0.61803339  0.61229792    -0.82300
H1565       H  0.35409183  0.55739373  0.58329944     0.18200
N1566       N  0.31078455  0.59031981  0.62486200    -0.80900
H1567       H  0.46066541  0.63852263  0.62887204     0.33800
H1568       H  0.46626887  0.59560487  0.62066608     0.38300
H1569       H  0.29997150  0.59358206  0.60037192     0.33800
H1570       H  0.30725135  0.56407457  0.63215705     0.30500
H1571       H  0.35140585  0.59130998  0.70755664     0.33800
H1572       H  0.31154743  0.59196511  0.72355212     0.30500
H1573       H  0.31523792  0.74715703  0.64508586     0.38400
H1574       H  0.35027079  0.75166080  0.67036963     0.33900
C1575       C  0.61420258  0.58817538  0.90714313    -0.19900
C1576       C  0.60111154  0.59619628  0.87415546     0.36300
C1577       C  0.62223926  0.61305602  0.84997339    -0.25900
C1578       C  0.65605409  0.62172933  0.85819422     0.02800
C1579       C  0.66992792  0.61165829  0.89024005     0.27600
C1580       C  0.64881829  0.59456992  0.91447942    -0.25000
N1581       N  0.56631958  0.58757885  0.86554114    -0.82400
H1582       H  0.61194687  0.62084280  0.82514331     0.13400
C1583       C  0.67450235  0.64601160  0.83515271     0.02700
N1584       N  0.70480091  0.62029401  0.89848879    -0.80900
H1585       H  0.65886673  0.58790184  0.93972435     0.18200
C1586       C  0.67134594  0.68207372  0.84148226    -0.25800
C1587       C  0.68601950  0.70670830  0.81912271     0.36200
C1588       C  0.70440221  0.69518676  0.78989698    -0.19800
C1589       C  0.70752467  0.65885019  0.78355434    -0.25100
C1590       C  0.69261284  0.63406731  0.80597713     0.27600
H1591       H  0.65682335  0.69116206  0.86366621     0.13400
N1592       N  0.68131248  0.74337105  0.82579401    -0.82300
H1593       H  0.72228027  0.64985402  0.76151530     0.18200
N1594       N  0.69551114  0.59700893  0.79920780    -0.80900
H1595       H  0.69126178  0.74911172  0.85025577     0.33800
H1596       H  0.65503283  0.74830505  0.82643177     0.38300
H1597       H  0.70939454  0.59266253  0.77646552     0.33800
H1598       H  0.70970531  0.58601008  0.81931830     0.30500
H1599       H  0.71087260  0.61158226  0.92335578     0.33800
H1600       H  0.72045680  0.60633835  0.88139503     0.30500
H1601       H  0.56395978  0.56016314  0.86603282     0.38400
H1602       H  0.56070362  0.59541890  0.84028951     0.33900
C1603       C  0.69726219  0.69961645  0.71124120    -0.19900
C1604       C  0.70540882  0.68233091  0.68003957     0.36300
C1605       C  0.67940886  0.66595139  0.66097391    -0.25900
C1606       C  0.64554518  0.66622710  0.67280297     0.02800
C1607       C  0.63710182  0.68361451  0.70371114     0.27600
C1608       C  0.66295572  0.70080288  0.72226934    -0.25000
N1609       N  0.73998073  0.68072057  0.66791573    -0.82400
H1610       H  0.68573225  0.65237421  0.63712268     0.13400
C1611       C  0.61967789  0.64636606  0.65329386     0.02700
N1612       N  0.60250381  0.68319113  0.71633072    -0.80900
H1613       H  0.65617080  0.71546270  0.74531669     0.18200
C1614       C  0.61782386  0.61001596  0.65868488    -0.25800
C1615       C  0.59700565  0.58868377  0.63786830     0.36200
C1616       C  0.57790334  0.60418794  0.61112433    -0.19800
C1617       C  0.57809802  0.64089495  0.60717683    -0.25100
C1618       C  0.59900934  0.66226777  0.62782667     0.27600
H1619       H  0.63349405  0.59818797  0.67857880     0.13400
N1620       N  0.59564068  0.55129542  0.64331063    -0.82300
H1621       H  0.56331604  0.65297731  0.58676686     0.18200
N1622       N  0.59914280  0.69958373  0.62166134    -0.80900
H1623       H  0.61139226  0.54412552  0.66392547     0.33800
H1624       H  0.57062755  0.54486748  0.65061170     0.38300
H1625       H  0.60910319  0.70377628  0.59689039     0.33800
H1626       H  0.61508563  0.71297537  0.63889505     0.30500
H1627       H  0.60082414  0.69646936  0.74000319     0.33800
H1628       H  0.58752237  0.69719084  0.69880277     0.30500
H1629       H  0.74677801  0.65426673  0.66547540     0.38400
H1630       H  0.74095443  0.69208073  0.64331577     0.33900
C1631       C  0.70207684  0.30082343  0.80016082    -0.19900
C1632       C  0.66609755  0.30375271  0.80189516     0.36300
C1633       C  0.65128006  0.32499319  0.82729242    -0.25900
C1634       C  0.67164755  0.34289976  0.85123817     0.02800
C1635       C  0.70735263  0.33941942  0.85047653     0.27600
C1636       C  0.72225101  0.31820067  0.82496974    -0.25000
N1637       N  0.64434273  0.28457972  0.77880321    -0.82400
H1638       H  0.62369379  0.32751191  0.82838609     0.13400
C1639       C  0.65502892  0.36606685  0.87634451     0.02700
N1640       N  0.72819440  0.35740210  0.87558333    -0.80900
H1641       H  0.74976007  0.31560785  0.82423927     0.18200
C1642       C  0.64631074  0.35277961  0.90891932    -0.25800
C1643       C  0.62807940  0.37354298  0.93246275     0.36200
C1644       C  0.61920584  0.40807006  0.92307874    -0.19800
C1645       C  0.62885277  0.42172332  0.89095320    -0.25100
C1646       C  0.64637590  0.40067333  0.86709376     0.27600
H1647       H  0.65302071  0.32599597  0.91553226     0.13400
N1648       N  0.61803911  0.35972370  0.96558910    -0.82300
H1649       H  0.62132941  0.44817407  0.88395500     0.18200
N1650       N  0.65433057  0.41362767  0.83309178    -0.80900
H1651       H  0.62639463  0.33379238  0.96833721     0.33800
H1652       H  0.63052712  0.37454871  0.98461664     0.38300
H1653       H  0.64553521  0.43939877  0.83018119     0.33800
H1654       H  0.68092425  0.41466965  0.83073464     0.30500
H1655       H  0.75402935  0.35175940  0.87156553     0.33800
H1656       H  0.72543649  0.38443585  0.87156484     0.30500
H1657       H  0.62885026  0.30260976  0.76586067     0.38400
H1658       H  0.62843167  0.26829499  0.79357532     0.33900
C1659       C  0.68992593  0.30208144  0.72113687    -0.19900
C1660       C  0.69295607  0.33892583  0.72378120     0.36300
C1661       C  0.67175205  0.36025002  0.70379733    -0.25900
C1662       C  0.64753754  0.34523035  0.68144002     0.02800
C1663       C  0.64405036  0.30836611  0.67929283     0.27600
C1664       C  0.66579132  0.28713863  0.69874736    -0.25000
N1665       N  0.71877898  0.35467215  0.74509935    -0.82400
H1666       H  0.67483990  0.38858271  0.70499624     0.13400
C1667       C  0.62702133  0.36820644  0.65912809     0.02700
N1668       N  0.61851727  0.29275243  0.65727347    -0.80900
H1669       H  0.66386670  0.25881504  0.69651130     0.18200
C1670       C  0.62872356  0.36330943  0.62320635    -0.25800
C1671       C  0.60890015  0.38371063  0.60100576     0.36200
C1672       C  0.58749291  0.40967919  0.61520057    -0.19800
C1673       C  0.58625738  0.41528553  0.65093021    -0.25100
C1674       C  0.60568655  0.39438647  0.67325867     0.27600
H1675       H  0.64555373  0.34344870  0.61254612     0.13400
N1676       N  0.61029272  0.37821546  0.56417591    -0.82300
H1677       H  0.56976333  0.43556935  0.66134042     0.18200
N1678       N  0.60356049  0.39923001  0.71009823    -0.80900
H1679       H  0.62695763  0.35766878  0.55806736     0.33800
H1680       H  0.62060551  0.40092593  0.55299184     0.38300
H1681       H  0.58668086  0.41956573  0.71617365     0.33800
H1682       H  0.59313950  0.37622335  0.72063503     0.30500
H1683       H  0.61945711  0.26530282  0.65861404     0.33800
H1684       H  0.59458632  0.30016282  0.66685956     0.30500
H1685       H  0.70674129  0.37141705  0.76279199     0.38400
H1686       H  0.73468668  0.36999102  0.72937292     0.33900
C1687       C  0.30998596  0.30188659  0.78994623    -0.19900
C1688       C  0.31187340  0.33890396  0.79098835     0.36300
C1689       C  0.33834413  0.35541510  0.80932913    -0.25900
C1690       C  0.36343855  0.33561902  0.82623810     0.02800
C1691       C  0.36182824  0.29855606  0.82492290     0.27600
C1692       C  0.33466075  0.28212689  0.80741002    -0.25000
N1693       N  0.28662310  0.35983984  0.77405230    -0.82400
H1694       H  0.33903209  0.38389196  0.81076280     0.13400
C1695       C  0.38984310  0.35415534  0.84698126     0.02700
N1696       N  0.38798088  0.27783034  0.84102562    -0.80900
H1697       H  0.33326080  0.25379022  0.80670325     0.18200
C1698       C  0.39256772  0.34653195  0.88236579    -0.25800
C1699       C  0.41477978  0.36578187  0.90376771     0.36200
C1700       C  0.43430261  0.39340616  0.88943544    -0.19800
C1701       C  0.43220836  0.40065783  0.85402580    -0.25100
C1702       C  0.41047721  0.38090345  0.83245078     0.27600
H1703       H  0.37640828  0.32628240  0.89353886     0.13400
N1704       N  0.41611758  0.35874649  0.94027991    -0.82300
H1705       H  0.44713049  0.42216127  0.84335963     0.18200
N1706       N  0.40885854  0.38815510  0.79600966    -0.80900
H1707       H  0.44044749  0.34901701  0.94576867     0.33800
H1708       H  0.39883374  0.33878124  0.94688671     0.38300
H1709       H  0.42552943  0.40870031  0.78952245     0.33800
H1710       H  0.41755401  0.36580693  0.78290585     0.30500
H1711       H  0.38301636  0.25097785  0.83763460     0.33800
H1712       H  0.41097234  0.28314674  0.82817440     0.30500
H1713       H  0.29919030  0.37605392  0.75624800     0.38400
H1714       H  0.27524340  0.37617470  0.79251904     0.33900
C1715       C  0.40444049  0.40628167  0.59665737    -0.19900
C1716       C  0.41249471  0.40945813  0.63198059     0.36300
C1717       C  0.39316427  0.39049450  0.65624489    -0.25900
C1718       C  0.36637159  0.36854375  0.64531631     0.02800
C1719       C  0.35858661  0.36531239  0.60983939     0.27600
C1720       C  0.37752570  0.38469807  0.58577449    -0.25000
N1721       N  0.44018504  0.43188505  0.64286293    -0.82400
H1722       H  0.39875696  0.39292729  0.68360321     0.13400
C1723       C  0.34559182  0.34962602  0.67095049     0.02700
N1724       N  0.33175492  0.34197094  0.59852957    -0.80900
H1725       H  0.37201654  0.38218471  0.55839984     0.18200
C1726       C  0.31061209  0.35678035  0.67225600    -0.25800
C1727       C  0.28872485  0.33640030  0.69226359     0.36200
C1728       C  0.30214349  0.30911296  0.71276899    -0.19800
C1729       C  0.33752256  0.30295831  0.71271497    -0.25100
C1730       C  0.35943876  0.32267191  0.69145320     0.27600
H1731       H  0.30007412  0.37768510  0.65656234     0.13400
N1732       N  0.25315881  0.34461149  0.69163417    -0.82300
H1733       H  0.34778414  0.28181696  0.72826646     0.18200
N1734       N  0.39530510  0.31477402  0.68973484    -0.80900
H1735       H  0.24530724  0.34971972  0.71694456     0.33800
H1736       H  0.23981250  0.32302931  0.68169700     0.38300
H1737       H  0.40123322  0.29412017  0.70644421     0.33800
H1738       H  0.40056015  0.30581096  0.66467518     0.30500
H1739       H  0.32929972  0.34267733  0.57162120     0.33800
H1740       H  0.33897333  0.31633351  0.60490742     0.30500
H1741       H  0.43375130  0.45772914  0.63642124     0.38400
H1742       H  0.44278340  0.43122955  0.66976431     0.33900
loop_ 
_geom_bond_atom_site_label_1 
_geom_bond_atom_site_label_2 
_geom_bond_distance 
_geom_bond_site_symmetry_2 
_ccdc_geom_bond_type 
C1           N19   1.347       .  A
C1           C38   1.445       .  S
C1          C844   1.450       .  S
N2           N19   1.324       .  A
N2           N24   1.318       .  A
N2          Co39   2.077   1_554  S
C3           N28   1.339       .  A
C3           C41   1.455       .  S
C3           H48   1.081       .  S
H4           C45   1.082       .  S
C5           N29   1.342       .  A
C5            C9   1.464       .  S
C5           H34   1.082       .  S
Co6          N24   2.054       .  S
Co6          N14   2.069       .  S
Co6         N917   2.080   1_554  S
Co6         N893   2.058   1_554  S
Co6         Cl50   2.436       .  S
N7           C45   1.338       .  A
N7           N14   1.317       .  A
N7         Co879   2.073       .  S
Co8          N28   2.080       .  S
Co8          N15   2.070       .  S
Co8         N878   2.066       .  S
Co8         N882   2.076       .  S
Co8        Cl921   2.438       .  S
C9           N47   1.348       .  A
C9          C745   1.472       .  S
N10          N17   1.320       .  A
N10          N40   1.319       .  A
N10        Co914   2.072   1_554  S
N11          N29   1.318       .  A
N11          N47   1.320       .  A
N11        Co879   2.070       .  S
N12          C41   1.344       .  A
N12          N22   1.320       .  A
H13          C38   1.082       .  S
N14          N35   1.320       .  A
N15          N33   1.318       .  A
N15          N20   1.321       .  A
C16          N20   1.346       .  A
C16          C44   1.457       .  S
C16         C704   1.464       .  S
N17          C32   1.339       .  A
N17         Co39   2.072   1_554  S
C18          N46   1.340       .  A
C18          C21   1.459       .  S
C18          H52   1.081       .  S
C21          N42   1.346       .  A
C21         C829   1.460       .  S
N22          N28   1.319       .  A
N22        Co877   2.060       .  S
N23          C49   1.337       .  A
N23          N25   1.318       .  A
N23        Co910   2.070       .  S
N24          C38   1.333       .  A
N25          N53   1.320       .  A
N25         Co43   2.067       .  S
H26          C49   1.082       .  S
H27          C44   1.081       .  S
N29        Co914   2.085   1_554  S
N30          N42   1.320       .  A
N30          N46   1.318       .  A
N30        Co910   2.068       .  S
C31          N35   1.347       .  A
C31          C45   1.459       .  S
C31         C801   1.460       .  S
C32          C51   1.457       .  S
C32          H36   1.081       .  S
N33          C44   1.336       .  A
N33         Co43   2.069       .  S
C37          N53   1.347       .  A
C37          C49   1.456       .  S
C37         C648   1.465       .  S
Co39        N894   2.066       .  S
Co39        N901   2.073       .  S
Co39        Cl50   2.446   1_556  S
N40          C51   1.346       .  A
C41         C773   1.458       .  S
Co43        N881   2.065       .  S
Co43        N900   2.071       .  S
Co43       Cl921   2.440       .  S
N46        Co877   2.082       .  S
Cl50       Co879   2.445       .  S
Cl50       Co914   2.439   1_554  S
C51         C689   1.466       .  S
C54          N72   1.350       .  A
C54          C91   1.471       .  S
C54         C549   1.495       .  S
N55          N72   1.322       .  A
N55          N77   1.321       .  A
N55         Co92   2.081       .  S
C56          N81   1.335       .  A
C56          C94   1.463       .  S
C56         H101   1.079       .  S
H57          C98   1.082       .  S
C58          N82   1.344       .  A
C58          C62   1.466       .  S
C58          H87   1.082       .  S
Co59         N77   2.101       .  S
Co59         N67   2.084       .  S
Co59         N99   2.084   1_565  S
Co59         N75   2.109   1_565  S
Co59       Cl103   2.471   1_554  S
N60          C98   1.344       .  A
N60          N67   1.321       .  A
N60         Co61   2.096   1_554  S
Co61         N81   2.077   1_566  S
Co61        N935   2.079       .  S
Co61        N939   2.103   1_565  S
Co61       Cl103   2.444       .  S
C62         N100   1.350       .  A
C62         C592   1.485       .  S
N63          N70   1.321       .  A
N63          N93   1.324       .  A
N63         Co96   2.090   1_565  S
N64          N82   1.322       .  A
N64         N100   1.323       .  A
N64        Co932   2.086   1_565  S
N65          C94   1.359       .  A
N65          N75   1.330       .  A
H66          C91   1.081       .  S
N67          N88   1.323       .  A
N68          N86   1.321       .  A
N68          N73   1.329       .  A
N68        Co932   2.109       .  S
C69          N73   1.357       .  A
C69          C97   1.464       .  S
C69         C521   1.497       .  S
N70          C85   1.345       .  A
N70        Co963   2.092   1_565  S
C71          N99   1.341       .  A
C71          C74   1.465       .  S
C71         H105   1.082       .  S
C74          N95   1.347       .  A
C74         C452   1.478       .  S
N75          N81   1.320       .  A
N76         C102   1.334       .  A
N76          N78   1.319       .  A
N76        Co963   2.066       .  S
N77          C91   1.346       .  A
N78         N106   1.326       .  A
N78         Co96   2.097       .  S
H79         C102   1.080       .  S
H80          C97   1.081       .  S
N82         Co96   2.096   1_565  S
N83          N95   1.323       .  A
N83          N99   1.320       .  A
N83         Co92   2.082   1_545  S
C84          N88   1.350       .  A
C84          C98   1.463       .  S
C84         C633   1.482       .  S
C85         C104   1.466       .  S
C85          H89   1.082       .  S
N86          C97   1.340       .  A
N86         Co96   2.083       .  S
C90         N106   1.356       .  A
C90         C102   1.459       .  S
C90         C424   1.485       .  S
Co92        N941   2.094   1_554  S
Co92        N947   2.066   1_564  S
Co92       Cl103   2.439   1_554  S
N93         C104   1.351       .  A
C94         C480   1.498       .  S
Co96       Cl974   2.462       .  S
Cl103      Co967   2.464       .  S
C104        C564   1.493       .  S
C107        N125   1.348       .  A
C107        C144   1.473       .  S
C107        C312   1.491       .  S
N108        N125   1.322       .  A
N108        N130   1.321       .  A
N108       Co145   2.071       .  S
C109        N134   1.339       .  A
C109        C147   1.464       .  S
C109        H154   1.081       .  S
H110        C151   1.082       .  S
C111        N135   1.345       .  A
C111        C115   1.467       .  S
C111        H140   1.081       .  S
Co112       N130   2.105       .  S
Co112       N120   2.099       .  S
Co112       N152   2.094   1_655  S
Co112       N128   2.099   1_655  S
Co112      Cl156   2.460   1_554  S
N113        C151   1.347       .  A
N113        N120   1.323       .  A
N113       Co114   2.109   1_554  S
Co114       N134   2.080   1_656  S
Co114       N988   2.094       .  S
Co114       N992   2.107   1_655  S
Co114      Cl156   2.455       .  S
C115        N153   1.352       .  A
C115        C368   1.494       .  S
N116        N123   1.322       .  A
N116        N146   1.326       .  A
N116       Co149   2.095       .  S
N117        N135   1.320       .  A
N117        N153   1.325       .  A
N117       Co985   2.091       .  S
N118        C147   1.355       .  A
N118        N128   1.327       .  A
H119        C144   1.081       .  S
N120        N141   1.326       .  A
N121        N139   1.322       .  A
N121        N126   1.327       .  A
N121       Co985   2.098   1_455  S
C122        N126   1.352       .  A
C122        C150   1.465       .  S
C122        C241   1.489       .  S
N123        C138   1.349       .  A
N123      Co1016   2.116       .  S
C124        N152   1.341       .  A
C124        C127   1.465       .  S
C124        H158   1.081       .  S
C127        N148   1.354       .  A
C127        C297   1.492       .  S
N128        N134   1.320       .  A
N129        C155   1.338       .  A
N129        N131   1.321       .  A
N129      Co1016   2.077   1_455  S
N130        C144   1.345       .  A
N131        N159   1.326       .  A
N131       Co149   2.098   1_455  S
H132        C155   1.082       .  S
H133        C150   1.082       .  S
N135       Co149   2.094       .  S
N136        N148   1.329       .  A
N136        N152   1.321       .  A
N136       Co145   2.101   1_455  S
C137        N141   1.353       .  A
C137        C151   1.469       .  S
C137        C396   1.499       .  S
C138        C157   1.471       .  S
C138        H142   1.082       .  S
N139        C150   1.343       .  A
N139       Co149   2.097   1_455  S
C143        N159   1.353       .  A
C143        C155   1.458       .  S
C143        C256   1.484       .  S
Co145       N994   2.105   1_554  S
Co145      N1000   2.067   1_654  S
Co145      Cl156   2.450   1_554  S
N146        C157   1.352       .  A
C147        C213   1.494       .  S
Co149     Cl1027   2.464       .  S
Cl156     Co1020   2.460   1_655  S
C157        C340   1.501       .  S
C160        H161   1.111       .  S
C160        C166   1.544       .  S
C160        C165   1.541       .  S
C160        C164   1.535       .  S
C162        H163   1.111       .  S
C162        C168   1.542       .  S
C162        C167   1.537       .  S
C162        C169   1.534       .  S
C164        C167   1.371       .  D
C164        C857   1.478       .  S
C165        C168   1.380       .  D
C165        C284   1.502       .  S
C166        C169   1.377       .  D
C166        C493   1.493       .  S
C167        C816   1.483       .  S
C168        C269   1.493       .  S
C169        C508   1.493       .  S
C170        H171   1.109       .  S
C170        C176   1.547       .  S
C170        C175   1.537       .  S
C170        C174   1.538       .  S
C172        H173   1.112       .  S
C172        C178   1.539       .  S
C172        C177   1.533       .  S
C172        C179   1.535       .  S
C174        C177   1.371       .  D
C174        C788   1.476       .  S
C175        C178   1.379       .  D
C175        C465   1.493       .  S
C176        C179   1.384       .  D
C176        C325   1.508       .  S
C177        C760   1.482       .  S
C178        C437   1.498       .  S
C179        C353   1.493       .  S
C180        H181   1.107       .  S
C180        C186   1.543       .  S
C180        C185   1.541       .  S
C180        C184   1.533       .  S
C182        H183   1.112       .  S
C182        C188   1.542       .  S
C182        C187   1.535       .  S
C182        C189   1.539       .  S
C184        C187   1.368       .  D
C184        C676   1.476       .  S
C185        C188   1.383       .  D
C185        C620   1.497       .  S
C186        C189   1.382       .  D
C186        C200   1.511       .  S
C187        C661   1.479       .  S
C188        C605   1.502       .  S
C189        C228   1.493       .  S
C190        H191   1.110       .  S
C190        C196   1.540       .  S
C190        C195   1.544       .  S
C190        C194   1.540       .  S
C192        H193   1.111       .  S
C192        C198   1.543       .  S
C192        C197   1.534       .  S
C192        C199   1.548       .  S
C194        C197   1.374       .  D
C194        C732   1.487       .  S
C195        C198   1.380       .  D
C195        C409   1.490       .  S
C196        C199   1.382       .  D
C196        C536   1.508       .  S
C197        C717   1.484       .  S
C198        C381   1.511       .  S
C199        C577   1.497       .  S
C200        C201   1.421       .  A
C200        C205   1.410       .  A
C201        C202   1.392       .  A
C201        N206   1.426       .  S
C202        H207   1.085       .  S
C202        C203   1.391       .  A
C203        C208   1.484       .  S
C203        C204   1.417       .  A
C204        C205   1.412       .  A
C204        N209   1.437       .  S
C205        H210   1.083       .  S
N206        H226   1.045       .  S
N206        H227   1.046       .  S
C208        C211   1.401       .  A
C208        C215   1.409       .  A
N209        H224   1.045       .  S
N209        H225   1.044       .  S
C211        H216   1.084       .  S
C211        C212   1.409       .  A
C212        C213   1.418       .  A
C212        N217   1.437       .  S
C213        C214   1.408       .  A
C214        H218   1.081       .  S
C214        C215   1.405       .  A
C215        N219   1.438       .  S
N217        H220   1.046       .  S
N217        H221   1.046       .  S
N219        H222   1.045       .  S
N219        H223   1.045       .  S
C228        C229   1.409       .  A
C228        C233   1.404       .  A
C229        C230   1.403       .  A
C229        N234   1.432       .  S
C230        H235   1.084       .  S
C230        C231   1.405       .  A
C231        C236   1.498       .  S
C231        C232   1.415       .  A
C232        C233   1.413       .  A
C232        N237   1.437       .  S
C233        H238   1.084       .  S
N234        H254   1.046       .  S
N234        H255   1.045       .  S
C236        C239   1.407       .  A
C236        C243   1.413       .  A
N237        H252   1.045       .  S
N237        H253   1.046       .  S
C239        H244   1.083       .  S
C239        C240   1.413       .  A
C240        C241   1.413       .  A
C240        N245   1.438       .  S
C241        C242   1.404       .  A
C242        H246   1.083       .  S
C242        C243   1.408       .  A
C243        N247   1.438       .  S
N245        H248   1.046       .  S
N245        H249   1.045       .  S
N247        H250   1.044       .  S
N247        H251   1.047       .  S
C256        C257   1.416       .  A
C256        C261   1.404       .  A
C257        C258   1.408       .  A
C257        N262   1.437       .  S
C258        H263   1.084       .  S
C258        C259   1.402       .  A
C259        C264   1.479       .  S
C259        C260   1.408       .  A
C260        C261   1.403       .  A
C260        N265   1.438       .  S
C261        H266   1.083       .  S
N262        H282   1.046       .  S
N262        H283   1.046       .  S
C264        C267   1.396       .  A
C264        C271   1.409       .  A
N265        H280   1.045       .  S
N265        H281   1.046       .  S
C267        H272   1.085       .  S
C267        C268   1.394       .  A
C268        C269   1.415       .  A
C268        N273   1.430       .  S
C269        C270   1.407       .  A
C270        H274   1.083       .  S
C270        C271   1.409       .  A
C271        N275   1.436       .  S
N273        H276   1.045       .  S
N273        H277   1.046       .  S
N275        H278   1.045       .  S
N275        H279   1.046       .  S
C284        C285   1.417       .  A
C284        C289   1.406       .  A
C285        C286   1.408       .  A
C285        N290   1.438       .  S
C286        H291   1.083       .  S
C286        C287   1.407       .  A
C287        C292   1.504       .  S
C287        C288   1.416       .  A
C288        C289   1.408       .  A
C288        N293   1.438       .  S
C289        H294   1.083       .  S
N290        H310   1.044       .  S
N290        H311   1.046       .  S
C292        C295   1.404       .  A
C292        C299   1.418       .  A
N293        H308   1.046       .  S
N293        H309   1.045       .  S
C295        H300   1.083       .  S
C295        C296   1.407       .  A
C296        C297   1.414       .  A
C296        N301   1.437       .  S
C297        C298   1.405       .  A
C298        H302   1.084       .  S
C298        C299   1.415       .  A
C299        N303   1.438       .  S
N301        H304   1.046       .  S
N301        H305   1.046       .  S
N303        H306   1.046       .  S
N303        H307   1.046       .  S
C312        C313   1.409       .  A
C312        C317   1.411       .  A
C313        C314   1.404       .  A
C313        N318   1.431       .  S
C314        H319   1.084       .  S
C314        C315   1.403       .  A
C315        C320   1.485       .  S
C315        C316   1.408       .  A
C316        C317   1.409       .  A
C316        N321   1.438       .  S
C317        H322   1.083       .  S
N318        H338   1.046       .  S
N318        H339   1.045       .  S
C320        C323   1.395       .  A
C320        C327   1.417       .  A
N321        H336   1.045       .  S
N321        H337   1.045       .  S
C323        H328   1.085       .  S
C323        C324   1.398       .  A
C324        C325   1.419       .  A
C324        N329   1.429       .  S
C325        C326   1.410       .  A
C326        H330   1.084       .  S
C326        C327   1.409       .  A
C327        N331   1.437       .  S
N329        H332   1.046       .  S
N329        H333   1.045       .  S
N331        H334   1.046       .  S
N331        H335   1.043       .  S
C340        C341   1.418       .  A
C340        C345   1.407       .  A
C341        C342   1.411       .  A
C341        N346   1.438       .  S
C342        H347   1.083       .  S
C342        C343   1.403       .  A
C343        C348   1.502       .  S
C343        C344   1.415       .  A
C344        C345   1.415       .  A
C344        N349   1.438       .  S
C345        H350   1.083       .  S
N346        H366   1.045       .  S
N346        H367   1.046       .  S
C348        C351   1.407       .  A
C348        C355   1.416       .  A
N349        H364   1.045       .  S
N349        H365   1.046       .  S
C351        H356   1.083       .  S
C351        C352   1.408       .  A
C352        C353   1.406       .  A
C352        N357   1.432       .  S
C353        C354   1.404       .  A
C354        H358   1.083       .  S
C354        C355   1.411       .  A
C355        N359   1.437       .  S
N357        H360   1.045       .  S
N357        H361   1.046       .  S
N359        H362   1.046       .  S
N359        H363   1.046       .  S
C368        C369   1.416       .  A
C368        C373   1.408       .  A
C369        C370   1.409       .  A
C369        N374   1.438       .  S
C370        H375   1.084       .  S
C370        C371   1.402       .  A
C371        C376   1.490       .  S
C371        C372   1.409       .  A
C372        C373   1.412       .  A
C372        N377   1.438       .  S
C373        H378   1.082       .  S
N374        H394   1.046       .  S
N374        H395   1.045       .  S
C376        C379   1.407       .  A
C376        C383   1.405       .  A
N377        H392   1.045       .  S
N377        H393   1.046       .  S
C379        H384   1.083       .  S
C379        C380   1.415       .  A
C380        C381   1.412       .  A
C380        N385   1.431       .  S
C381        C382   1.408       .  A
C382        H386   1.072       .  S
C382        C383   1.402       .  A
C383        N387   1.439       .  S
N385        H388   1.046       .  S
N385        H389   1.045       .  S
N387        H390   1.046       .  S
N387        H391   1.046       .  S
C396        C397   1.419       .  A
C396        C401   1.407       .  A
C397        C398   1.410       .  A
C397        N402   1.437       .  S
C398        H403   1.083       .  S
C398        C399   1.403       .  A
C399        C404   1.499       .  S
C399        C400   1.413       .  A
C400        C401   1.414       .  A
C400        N405   1.437       .  S
C401        H406   1.083       .  S
N402        H422   1.045       .  S
N402        H423   1.046       .  S
C404        C407   1.409       .  A
C404        C411   1.418       .  A
N405        H420   1.046       .  S
N405        H421   1.046       .  S
C407        H412   1.084       .  S
C407        C408   1.411       .  A
C408        C409   1.407       .  A
C408        N413   1.432       .  S
C409        C410   1.401       .  A
C410        H414   1.084       .  S
C410        C411   1.400       .  A
C411        N415   1.432       .  S
N413        H416   1.046       .  S
N413        H417   1.045       .  S
N415        H418   1.044       .  S
N415        H419   1.045       .  S
C424        C425   1.413       .  A
C424        C429   1.407       .  A
C425        C426   1.400       .  A
C425        N430   1.432       .  S
C426        H431   1.084       .  S
C426        C427   1.400       .  A
C427        C432   1.480       .  S
C427        C428   1.409       .  A
C428        C429   1.408       .  A
C428        N433   1.438       .  S
C429        H434   1.083       .  S
N430        H450   1.046       .  S
N430        H451   1.046       .  S
C432        C435   1.405       .  A
C432        C439   1.408       .  A
N433        H448   1.046       .  S
N433        H449   1.045       .  S
C435        H440   1.084       .  S
C435        C436   1.408       .  A
C436        C437   1.419       .  A
C436        N441   1.436       .  S
C437        C438   1.407       .  A
C438        H442   1.078       .  S
C438        C439   1.389       .  A
C439        N443   1.434       .  S
N441        H444   1.045       .  S
N441        H445   1.044       .  S
N443        H446   1.044       .  S
N443        H447   1.045       .  S
C452        C453   1.412       .  A
C452        C457   1.403       .  A
C453        C454   1.407       .  A
C453        N458   1.438       .  S
C454        H459   1.084       .  S
C454        C455   1.404       .  A
C455        C460   1.485       .  S
C455        C456   1.411       .  A
C456        C457   1.404       .  A
C456        N461   1.438       .  S
C457        H462   1.083       .  S
N458        H478   1.045       .  S
N458        H479   1.046       .  S
C460        C463   1.398       .  A
C460        C467   1.410       .  A
N461        H476   1.046       .  S
N461        H477   1.045       .  S
C463        H468   1.085       .  S
C463        C464   1.395       .  A
C464        C465   1.422       .  A
C464        N469   1.433       .  S
C465        C466   1.405       .  A
C466        H470   1.084       .  S
C466        C467   1.409       .  A
C467        N471   1.437       .  S
N469        H472   1.047       .  S
N469        H473   1.033       .  S
N471        H474   1.045       .  S
N471        H475   1.046       .  S
C480        C481   1.418       .  A
C480        C485   1.410       .  A
C481        C482   1.401       .  A
C481        N486   1.430       .  S
C482        H487   1.084       .  S
C482        C483   1.396       .  A
C483        C488   1.483       .  S
C483        C484   1.409       .  A
C484        C485   1.413       .  A
C484        N489   1.438       .  S
C485        H490   1.083       .  S
N486        H506   1.046       .  S
N486        H507   1.046       .  S
C488        C491   1.405       .  A
C488        C495   1.410       .  A
N489        H504   1.045       .  S
N489        H505   1.046       .  S
C491        H496   1.083       .  S
C491        C492   1.410       .  A
C492        C493   1.410       .  A
C492        N497   1.432       .  S
C493        C494   1.404       .  A
C494        H498   1.078       .  S
C494        C495   1.393       .  A
C495        N499   1.433       .  S
N497        H500   1.045       .  S
N497        H501   1.046       .  S
N499        H502   1.044       .  S
N499        H503   1.046       .  S
C508        C509   1.415       .  A
C508        C513   1.404       .  A
C509        C510   1.406       .  A
C509        N514   1.439       .  S
C510        H515   1.083       .  S
C510        C511   1.408       .  A
C511        C516   1.504       .  S
C511        C512   1.417       .  A
C512        C513   1.408       .  A
C512        N517   1.438       .  S
C513        H518   1.084       .  S
N514        H534   1.043       .  S
N514        H535   1.045       .  S
C516        C519   1.405       .  A
C516        C523   1.417       .  A
N517        H532   1.046       .  S
N517        H533   1.045       .  S
C519        H524   1.083       .  S
C519        C520   1.410       .  A
C520        C521   1.418       .  A
C520        N525   1.437       .  S
C521        C522   1.404       .  A
C522        H526   1.084       .  S
C522        C523   1.412       .  A
C523        N527   1.437       .  S
N525        H528   1.046       .  S
N525        H529   1.046       .  S
N527        H530   1.046       .  S
N527        H531   1.045       .  S
C536        C537   1.414       .  A
C536        C541   1.409       .  A
C537        C538   1.414       .  A
C537        N542   1.436       .  S
C538        H543   1.083       .  S
C538        C539   1.405       .  A
C539        C544   1.486       .  S
C539        C540   1.405       .  A
C540        C541   1.401       .  A
C540        N545   1.439       .  S
C541        H546   1.077       .  S
N542        H562   1.046       .  S
N542        H563   1.045       .  S
C544        C547   1.399       .  A
C544        C551   1.409       .  A
N545        H560   1.045       .  S
N545        H561   1.045       .  S
C547        H552   1.084       .  S
C547        C548   1.406       .  A
C548        C549   1.418       .  A
C548        N553   1.438       .  S
C549        C550   1.409       .  A
C550        H554   1.082       .  S
C550        C551   1.412       .  A
C551        N555   1.438       .  S
N553        H556   1.046       .  S
N553        H557   1.045       .  S
N555        H558   1.046       .  S
N555        H559   1.046       .  S
C564        C565   1.417       .  A
C564        C569   1.405       .  A
C565        C566   1.409       .  A
C565        N570   1.438       .  S
C566        H571   1.083       .  S
C566        C567   1.404       .  A
C567        C572   1.500       .  S
C567        C568   1.415       .  A
C568        C569   1.411       .  A
C568        N573   1.438       .  S
C569        H574   1.083       .  S
N570        H590   1.046       .  S
N570        H591   1.046       .  S
C572        C575   1.407       .  A
C572        C579   1.415       .  A
N573        H588   1.046       .  S
N573        H589   1.046       .  S
C575        H580   1.083       .  S
C575        C576   1.410       .  A
C576        C577   1.408       .  A
C576        N581   1.437       .  S
C577        C578   1.406       .  A
C578        H582   1.084       .  S
C578        C579   1.409       .  A
C579        N583   1.438       .  S
N581        H584   1.046       .  S
N581        H585   1.045       .  S
N583        H586   1.046       .  S
N583        H587   1.046       .  S
C592        C593   1.412       .  A
C592        C597   1.407       .  A
C593        C594   1.405       .  A
C593        N598   1.438       .  S
C594        H599   1.084       .  S
C594        C595   1.403       .  A
C595        C600   1.487       .  S
C595        C596   1.410       .  A
C596        C597   1.410       .  A
C596        N601   1.438       .  S
C597        H602   1.083       .  S
N598        H618   1.045       .  S
N598        H619   1.046       .  S
C600        C603   1.405       .  A
C600        C607   1.405       .  A
N601        H616   1.045       .  S
N601        H617   1.046       .  S
C603        H608   1.084       .  S
C603        C604   1.409       .  A
C604        C605   1.420       .  A
C604        N609   1.437       .  S
C605        C606   1.408       .  A
C606        H610   1.078       .  S
C606        C607   1.399       .  A
C607        N611   1.439       .  S
N609        H612   1.046       .  S
N609        H613   1.043       .  S
N611        H614   1.046       .  S
N611        H615   1.045       .  S
C620        C621   1.409       .  A
C620        C625   1.407       .  A
C621        C622   1.406       .  A
C621        N626   1.432       .  S
C622        H627   1.084       .  S
C622        C623   1.405       .  A
C623        C628   1.492       .  S
C623        C624   1.412       .  A
C624        C625   1.405       .  A
C624        N629   1.438       .  S
C625        H630   1.079       .  S
N626        H646   1.046       .  S
N626        H647   1.045       .  S
C628        C631   1.403       .  A
C628        C635   1.415       .  A
N629        H644   1.046       .  S
N629        H645   1.046       .  S
C631        H636   1.084       .  S
C631        C632   1.402       .  A
C632        C633   1.411       .  A
C632        N637   1.432       .  S
C633        C634   1.403       .  A
C634        H638   1.084       .  S
C634        C635   1.411       .  A
C635        N639   1.437       .  S
N637        H640   1.046       .  S
N637        H641   1.046       .  S
N639        H642   1.046       .  S
N639        H643   1.046       .  S
C648        C649   1.413       .  A
C648        C653   1.401       .  A
C649        C650   1.400       .  A
C649        N654   1.439       .  S
C650        H655   1.084       .  S
C650        C651   1.399       .  A
C651        C656   1.466       .  S
C651        C652   1.407       .  A
C652        C653   1.402       .  A
C652        N657   1.438       .  S
C653        H658   1.084       .  S
N654        H674   1.046       .  S
N654        H675   1.046       .  S
C656        C659   1.396       .  A
C656        C663   1.407       .  A
N657        H672   1.046       .  S
N657        H673   1.043       .  S
C659        H664   1.085       .  S
C659        C660   1.394       .  A
C660        C661   1.421       .  A
C660        N665   1.437       .  S
C661        C662   1.401       .  A
C662        H666   1.083       .  S
C662        C663   1.401       .  A
C663        N667   1.438       .  S
N665        H668   1.048       .  S
N665        H669   1.037       .  S
N667        H670   1.046       .  S
N667        H671   1.043       .  S
C676        C677   1.407       .  A
C676        C681   1.405       .  A
C677        C678   1.393       .  A
C677        N682   1.430       .  S
C678        H683   1.084       .  S
C678        C679   1.398       .  A
C679        C684   1.464       .  S
C679        C680   1.406       .  A
C680        C681   1.400       .  A
C680        N685   1.437       .  S
C681        H686   1.083       .  S
N682        H702   1.046       .  S
N682        H703   1.045       .  S
C684        C687   1.397       .  A
C684        C691   1.404       .  A
N685        H700   1.045       .  S
N685        H701   1.046       .  S
C687        H692   1.084       .  S
C687        C688   1.396       .  A
C688        C689   1.412       .  A
C688        N693   1.438       .  S
C689        C690   1.404       .  A
C690        H694   1.084       .  S
C690        C691   1.401       .  A
C691        N695   1.433       .  S
N693        H696   1.046       .  S
N693        H697   1.045       .  S
N695        H698   1.045       .  S
N695        H699   1.046       .  S
C704        C705   1.409       .  A
C704        C709   1.403       .  A
C705        C706   1.399       .  A
C705        N710   1.438       .  S
C706        H711   1.084       .  S
C706        C707   1.398       .  A
C707        C712   1.462       .  S
C707        C708   1.406       .  A
C708        C709   1.401       .  A
C708        N713   1.438       .  S
C709        H714   1.084       .  S
N710        H730   1.046       .  S
N710        H731   1.046       .  S
C712        C715   1.397       .  A
C712        C719   1.404       .  A
N713        H728   1.046       .  S
N713        H729   1.045       .  S
C715        H720   1.084       .  S
C715        C716   1.395       .  A
C716        C717   1.408       .  A
C716        N721   1.429       .  S
C717        C718   1.407       .  A
C718        H722   1.084       .  S
C718        C719   1.401       .  A
C719        N723   1.437       .  S
N721        H724   1.045       .  S
N721        H725   1.046       .  S
N723        H726   1.046       .  S
N723        H727   1.045       .  S
C732        C733   1.408       .  A
C732        C737   1.407       .  A
C733        C734   1.402       .  A
C733        N738   1.431       .  S
C734        H739   1.084       .  S
C734        C735   1.402       .  A
C735        C740   1.472       .  S
C735        C736   1.404       .  A
C736        C737   1.399       .  A
C736        N741   1.438       .  S
C737        H742   1.083       .  S
N738        H758   1.045       .  S
N738        H759   1.046       .  S
C740        C743   1.400       .  A
C740        C747   1.415       .  A
N741        H756   1.046       .  S
N741        H757   1.045       .  S
C743        H748   1.084       .  S
C743        C744   1.402       .  A
C744        C745   1.410       .  A
C744        N749   1.438       .  S
C745        C746   1.402       .  A
C746        H750   1.083       .  S
C746        C747   1.400       .  A
C747        N751   1.439       .  S
N749        H752   1.046       .  S
N749        H753   1.046       .  S
N751        H754   1.045       .  S
N751        H755   1.043       .  S
C760        C761   1.412       .  A
C760        C765   1.404       .  A
C761        C762   1.394       .  A
C761        N766   1.429       .  S
C762        H767   1.084       .  S
C762        C763   1.394       .  A
C763        C768   1.462       .  S
C763        C764   1.405       .  A
C764        C765   1.402       .  A
C764        N769   1.438       .  S
C765        H770   1.081       .  S
N766        H786   1.046       .  S
N766        H787   1.046       .  S
C768        C771   1.399       .  A
C768        C775   1.406       .  A
N769        H784   1.046       .  S
N769        H785   1.045       .  S
C771        H776   1.084       .  S
C771        C772   1.400       .  A
C772        C773   1.409       .  A
C772        N777   1.438       .  S
C773        C774   1.399       .  A
C774        H778   1.084       .  S
C774        C775   1.401       .  A
C775        N779   1.438       .  S
N777        H780   1.046       .  S
N777        H781   1.045       .  S
N779        H782   1.046       .  S
N779        H783   1.045       .  S
C788        C789   1.408       .  A
C788        C793   1.401       .  A
C789        C790   1.397       .  A
C789        N794   1.432       .  S
C790        H795   1.084       .  S
C790        C791   1.401       .  A
C791        C796   1.473       .  S
C791        C792   1.410       .  A
C792        C793   1.402       .  A
C792        N797   1.438       .  S
C793        H798   1.082       .  S
N794        H814   1.046       .  S
N794        H815   1.045       .  S
C796        C799   1.401       .  A
C796        C803   1.411       .  A
N797        H812   1.046       .  S
N797        H813   1.046       .  S
C799        H804   1.084       .  S
C799        C800   1.399       .  A
C800        C801   1.410       .  A
C800        N805   1.439       .  S
C801        C802   1.398       .  A
C802        H806   1.084       .  S
C802        C803   1.403       .  A
C803        N807   1.437       .  S
N805        H808   1.046       .  S
N805        H809   1.046       .  S
N807        H810   1.045       .  S
N807        H811   1.046       .  S
C816        C817   1.409       .  A
C816        C821   1.401       .  A
C817        C818   1.402       .  A
C817        N822   1.432       .  S
C818        H823   1.084       .  S
C818        C819   1.402       .  A
C819        C824   1.474       .  S
C819        C820   1.407       .  A
C820        C821   1.399       .  A
C820        N825   1.438       .  S
C821        H826   1.077       .  S
N822        H842   1.045       .  S
N822        H843   1.045       .  S
C824        C827   1.401       .  A
C824        C831   1.409       .  A
N825        H840   1.046       .  S
N825        H841   1.046       .  S
C827        H832   1.084       .  S
C827        C828   1.399       .  A
C828        C829   1.407       .  A
C828        N833   1.438       .  S
C829        C830   1.400       .  A
C830        H834   1.084       .  S
C830        C831   1.405       .  A
C831        N835   1.437       .  S
N833        H836   1.046       .  S
N833        H837   1.045       .  S
N835        H838   1.046       .  S
N835        H839   1.046       .  S
C844        C845   1.404       .  A
C844        C849   1.398       .  A
C845        C846   1.398       .  A
C845        N850   1.438       .  S
C846        H851   1.084       .  S
C846        C847   1.399       .  A
C847        C852   1.462       .  S
C847        C848   1.409       .  A
C848        C849   1.399       .  A
C848        N853   1.438       .  S
C849        H854   1.084       .  S
N850        H870   1.046       .  S
N850        H871   1.046       .  S
C852        C855   1.393       .  A
C852        C859   1.407       .  A
N853        H868   1.046       .  S
N853        H869   1.045       .  S
C855        H860   1.085       .  S
C855        C856   1.386       .  A
C856        C857   1.413       .  A
C856        N861   1.426       .  S
C857        C858   1.404       .  A
C858        H862   1.084       .  S
C858        C859   1.402       .  A
C859        N863   1.437       .  S
N861        H864   1.043       .  S
N861        H865   1.042       .  S
N863        H866   1.046       .  S
N863        H867   1.046       .  S
C872        N890   1.346       .  A
C872        C909   1.448       .  S
C872       C1715   1.454       .  S
N873        N890   1.323       .  A
N873        N895   1.318       .  A
N873       Co910   2.075       .  S
C874        N899   1.340       .  A
C874        C912   1.454       .  S
C874        H919   1.081       .  S
H875        C916   1.082       .  S
C876        N900   1.339       .  A
C876        C880   1.458       .  S
C876        H905   1.081       .  S
Co877       N895   2.061       .  S
Co877       N885   2.071       .  S
Co877      Cl921   2.442       .  S
N878        C916   1.336       .  A
N878        N885   1.317       .  A
Co879       N899   2.073   1_554  S
Co879       N886   2.076   1_554  S
C880        N918   1.349       .  A
C880       C1616   1.470       .  S
N881        N888   1.318       .  A
N881        N911   1.318       .  A
N882        N900   1.317       .  A
N882        N918   1.322       .  A
N883        C912   1.342       .  A
N883        N893   1.318       .  A
H884        C909   1.081       .  S
N885        N906   1.321       .  A
N886        N904   1.319       .  A
N886        N891   1.324       .  A
C887        N891   1.347       .  A
C887        C915   1.459       .  S
C887       C1575   1.471       .  S
N888        C903   1.337       .  A
N888       Co910   2.068       .  S
C889        N917   1.340       .  A
C889        C892   1.460       .  S
C889        H923   1.081       .  S
C892        N913   1.348       .  A
C892       C1700   1.466       .  S
N893        N899   1.319       .  A
N894        C920   1.336       .  A
N894        N896   1.319       .  A
N895        C909   1.336       .  A
N896        N924   1.321       .  A
N896       Co914   2.074       .  S
H897        C920   1.082       .  S
H898        C915   1.081       .  S
N901        N913   1.322       .  A
N901        N917   1.318       .  A
C902        N906   1.347       .  A
C902        C916   1.454       .  S
C902       C1672   1.454       .  S
C903        C922   1.457       .  S
C903        H907   1.081       .  S
N904        C915   1.338       .  A
N904       Co914   2.079       .  S
C908        N924   1.348       .  A
C908        C920   1.455       .  S
C908       C1519   1.464       .  S
Co910      Cl921   2.442       .  S
N911        C922   1.346       .  A
C912       C1644   1.453       .  S
C922       C1560   1.466       .  S
C925        N943   1.350       .  A
C925        C962   1.473       .  S
C925       C1420   1.499       .  S
N926        N943   1.323       .  A
N926        N948   1.321       .  A
N926       Co963   2.081   1_565  S
C927        N952   1.338       .  A
C927        C965   1.465       .  S
C927        H972   1.080       .  S
H928        C969   1.082       .  S
C929        N953   1.344       .  A
C929        C933   1.468       .  S
C929        H958   1.081       .  S
Co930       N948   2.110   1_545  S
Co930       N938   2.086   1_545  S
Co930       N970   2.082       .  S
Co930       N946   2.104       .  S
Co930      Cl974   2.467       .  S
N931        C969   1.344       .  A
N931        N938   1.322       .  A
N931       Co932   2.099   1_565  S
Co932       N952   2.087       .  S
Co932      Cl974   2.448       .  S
C933        N971   1.349       .  A
C933       C1463   1.487       .  S
N934        N941   1.321       .  A
N934        N964   1.325       .  A
N934       Co967   2.093       .  S
N935        N953   1.321       .  A
N935        N971   1.323       .  A
N936        C965   1.356       .  A
N936        N946   1.328       .  A
H937        C962   1.081       .  S
N938        N959   1.325       .  A
N939        N957   1.321       .  A
N939        N944   1.329       .  A
C940        N944   1.355       .  A
C940        C968   1.465       .  S
C940       C1392   1.495       .  S
N941        C956   1.345       .  A
C942        N970   1.341       .  A
C942        C945   1.465       .  S
C942        H976   1.082       .  S
C945        N966   1.349       .  A
C945       C1323   1.480       .  S
N946        N952   1.321       .  A
N947        C973   1.334       .  A
N947        N949   1.318       .  A
N948        C962   1.347       .  A
N949        N977   1.328       .  A
N949       Co967   2.105   1_545  S
H950        C973   1.079       .  S
H951        C968   1.081       .  S
N953       Co967   2.099       .  S
N954        N966   1.323       .  A
N954        N970   1.319       .  A
N954       Co963   2.084       .  S
C955        N959   1.351       .  A
C955        C969   1.463       .  S
C955       C1504   1.486       .  S
C956        C975   1.467       .  S
C956        H960   1.082       .  S
N957        C968   1.340       .  A
N957       Co967   2.088   1_545  S
C961        N977   1.359       .  A
C961        C973   1.460       .  S
C961       C1295   1.491       .  S
Co963      Cl974   2.444       .  S
N964        C975   1.352       .  A
C965       C1351   1.495       .  S
C975       C1435   1.495       .  S
C978        N996   1.352       .  A
C978       C1015   1.472       .  S
C978       C1183   1.495       .  S
N979        N996   1.324       .  A
N979       N1001   1.319       .  A
N979      Co1016   2.079       .  S
C980       N1005   1.340       .  A
C980       C1018   1.464       .  S
C980       H1025   1.081       .  S
H981       C1022   1.082       .  S
C982       N1006   1.343       .  A
C982        C986   1.465       .  S
C982       H1011   1.081       .  S
Co983      N1001   2.093       .  S
Co983       N991   2.100       .  S
Co983      N1023   2.101   1_655  S
Co983       N999   2.100   1_655  S
Co983     Cl1027   2.459       .  S
N984       C1022   1.346       .  A
N984        N991   1.322       .  A
N984       Co985   2.098       .  S
Co985      N1005   2.084   1_655  S
Co985     Cl1027   2.455       .  S
C986       N1024   1.353       .  A
C986       C1239   1.494       .  S
N987        N994   1.321       .  A
N987       N1017   1.325       .  A
N987      Co1020   2.087   1_655  S
N988       N1006   1.320       .  A
N988       N1024   1.326       .  A
N989       C1018   1.356       .  A
N989        N999   1.327       .  A
H990       C1015   1.078       .  S
N991       N1012   1.326       .  A
N992       N1010   1.321       .  A
N992        N997   1.329       .  A
C993        N997   1.356       .  A
C993       C1021   1.461       .  S
C993       C1112   1.489       .  S
N994       C1009   1.346       .  A
C995       N1023   1.343       .  A
C995        C998   1.467       .  S
C995       H1029   1.081       .  S
C998       N1019   1.358       .  A
C998       C1168   1.504       .  S
N999       N1005   1.320       .  A
N1000      C1026   1.335       .  A
N1000      N1002   1.319       .  A
N1001      C1015   1.340       .  A
N1002      N1030   1.326       .  A
N1002     Co1020   2.091       .  S
H1003      C1026   1.081       .  S
H1004      C1021   1.082       .  S
N1006     Co1020   2.091   1_655  S
N1007      N1019   1.332       .  A
N1007      N1023   1.323       .  A
N1007     Co1016   2.118   1_455  S
C1008      N1012   1.353       .  A
C1008      C1022   1.466       .  S
C1008      C1267   1.497       .  S
C1009      C1028   1.469       .  S
C1009      H1013   1.081       .  S
N1010      C1021   1.338       .  A
N1010     Co1020   2.082       .  S
C1014      N1030   1.354       .  A
C1014      C1026   1.458       .  S
C1014      C1127   1.484       .  S
Co1016    Cl1027   2.460       .  S
N1017      C1028   1.351       .  A
C1018      C1084   1.497       .  S
C1028      C1211   1.497       .  S
C1031      H1032   1.111       .  S
C1031      C1037   1.544       .  S
C1031      C1036   1.540       .  S
C1031      C1035   1.536       .  S
C1033      H1034   1.110       .  S
C1033      C1039   1.548       .  S
C1033      C1038   1.537       .  S
C1033      C1040   1.538       .  S
C1035      C1038   1.370       .  D
C1035      C1728   1.477       .  S
C1036      C1039   1.383       .  D
C1036      C1155   1.505       .  S
C1037      C1040   1.378       .  D
C1037      C1364   1.495       .  S
C1038      C1687   1.486       .  S
C1039      C1140   1.498       .  S
C1040      C1379   1.496       .  S
C1041      H1042   1.109       .  S
C1041      C1047   1.542       .  S
C1041      C1046   1.535       .  S
C1041      C1045   1.537       .  S
C1043      H1044   1.112       .  S
C1043      C1049   1.538       .  S
C1043      C1048   1.535       .  S
C1043      C1050   1.535       .  S
C1045      C1048   1.372       .  D
C1045      C1659   1.471       .  S
C1046      C1049   1.377       .  D
C1046      C1336   1.491       .  S
C1047      C1050   1.383       .  D
C1047      C1196   1.506       .  S
C1048      C1631   1.484       .  S
C1049      C1308   1.496       .  S
C1050      C1224   1.489       .  S
C1051      H1052   1.108       .  S
C1051      C1057   1.544       .  S
C1051      C1056   1.547       .  S
C1051      C1055   1.533       .  S
C1053      H1054   1.112       .  S
C1053      C1059   1.542       .  S
C1053      C1058   1.532       .  S
C1053      C1060   1.537       .  S
C1055      C1058   1.368       .  D
C1055      C1547   1.474       .  S
C1056      C1059   1.387       .  D
C1056      C1491   1.501       .  S
C1057      C1060   1.379       .  D
C1057      C1071   1.509       .  S
C1058      C1532   1.480       .  S
C1059      C1476   1.506       .  S
C1060      C1099   1.492       .  S
C1061      H1062   1.109       .  S
C1061      C1067   1.539       .  S
C1061      C1066   1.547       .  S
C1061      C1065   1.543       .  S
C1063      H1064   1.111       .  S
C1063      C1069   1.543       .  S
C1063      C1068   1.534       .  S
C1063      C1070   1.549       .  S
C1065      C1068   1.375       .  D
C1065      C1603   1.484       .  S
C1066      C1069   1.381       .  D
C1066      C1280   1.492       .  S
C1067      C1070   1.380       .  D
C1067      C1407   1.513       .  S
C1068      C1588   1.488       .  S
C1069      C1252   1.514       .  S
C1070      C1448   1.493       .  S
C1071      C1072   1.418       .  A
C1071      C1076   1.409       .  A
C1072      C1073   1.398       .  A
C1072      N1077   1.428       .  S
C1073      H1078   1.085       .  S
C1073      C1074   1.394       .  A
C1074      C1079   1.484       .  S
C1074      C1075   1.416       .  A
C1075      C1076   1.410       .  A
C1075      N1080   1.437       .  S
C1076      H1081   1.083       .  S
N1077      H1097   1.045       .  S
N1077      H1098   1.046       .  S
C1079      C1082   1.401       .  A
C1079      C1086   1.406       .  A
N1080      H1095   1.046       .  S
N1080      H1096   1.043       .  S
C1082      H1087   1.084       .  S
C1082      C1083   1.410       .  A
C1083      C1084   1.417       .  A
C1083      N1088   1.437       .  S
C1084      C1085   1.410       .  A
C1085      H1089   1.081       .  S
C1085      C1086   1.408       .  A
C1086      N1090   1.438       .  S
N1088      H1091   1.046       .  S
N1088      H1092   1.045       .  S
N1090      H1093   1.045       .  S
N1090      H1094   1.046       .  S
C1099      C1100   1.410       .  A
C1099      C1104   1.402       .  A
C1100      C1101   1.405       .  A
C1100      N1105   1.432       .  S
C1101      H1106   1.084       .  S
C1101      C1102   1.406       .  A
C1102      C1107   1.498       .  S
C1102      C1103   1.415       .  A
C1103      C1104   1.411       .  A
C1103      N1108   1.437       .  S
C1104      H1109   1.084       .  S
N1105      H1125   1.046       .  S
N1105      H1126   1.045       .  S
C1107      C1110   1.408       .  A
C1107      C1114   1.412       .  A
N1108      H1123   1.046       .  S
N1108      H1124   1.045       .  S
C1110      H1115   1.083       .  S
C1110      C1111   1.412       .  A
C1111      C1112   1.412       .  A
C1111      N1116   1.437       .  S
C1112      C1113   1.405       .  A
C1113      H1117   1.083       .  S
C1113      C1114   1.406       .  A
C1114      N1118   1.438       .  S
N1116      H1119   1.046       .  S
N1116      H1120   1.045       .  S
N1118      H1121   1.046       .  S
N1118      H1122   1.046       .  S
C1127      C1128   1.416       .  A
C1127      C1132   1.405       .  A
C1128      C1129   1.409       .  A
C1128      N1133   1.437       .  S
C1129      H1134   1.084       .  S
C1129      C1130   1.402       .  A
C1130      C1135   1.479       .  S
C1130      C1131   1.407       .  A
C1131      C1132   1.401       .  A
C1131      N1136   1.438       .  S
C1132      H1137   1.082       .  S
N1133      H1153   1.045       .  S
N1133      H1154   1.046       .  S
C1135      C1138   1.395       .  A
C1135      C1142   1.409       .  A
N1136      H1151   1.046       .  S
N1136      H1152   1.046       .  S
C1138      H1143   1.085       .  S
C1138      C1139   1.394       .  A
C1139      C1140   1.416       .  A
C1139      N1144   1.430       .  S
C1140      C1141   1.409       .  A
C1141      H1145   1.083       .  S
C1141      C1142   1.411       .  A
C1142      N1146   1.436       .  S
N1144      H1147   1.045       .  S
N1144      H1148   1.046       .  S
N1146      H1149   1.046       .  S
N1146      H1150   1.046       .  S
C1155      C1156   1.418       .  A
C1155      C1160   1.405       .  A
C1156      C1157   1.411       .  A
C1156      N1161   1.439       .  S
C1157      H1162   1.083       .  S
C1157      C1158   1.409       .  A
C1158      C1163   1.514       .  S
C1158      C1159   1.419       .  A
C1159      C1160   1.411       .  A
C1159      N1164   1.438       .  S
C1160      H1165   1.083       .  S
N1161      H1181   1.044       .  S
N1161      H1182   1.045       .  S
C1163      C1166   1.406       .  A
C1163      C1170   1.420       .  A
N1164      H1179   1.046       .  S
N1164      H1180   1.046       .  S
C1166      H1171   1.083       .  S
C1166      C1167   1.412       .  A
C1167      C1168   1.417       .  A
C1167      N1172   1.437       .  S
C1168      C1169   1.406       .  A
C1169      H1173   1.084       .  S
C1169      C1170   1.418       .  A
C1170      N1174   1.437       .  S
N1172      H1175   1.046       .  S
N1172      H1176   1.045       .  S
N1174      H1177   1.046       .  S
N1174      H1178   1.045       .  S
C1183      C1184   1.415       .  A
C1183      C1188   1.412       .  A
C1184      C1185   1.402       .  A
C1184      N1189   1.429       .  S
C1185      H1190   1.084       .  S
C1185      C1186   1.398       .  A
C1186      C1191   1.479       .  S
C1186      C1187   1.406       .  A
C1187      C1188   1.409       .  A
C1187      N1192   1.437       .  S
C1188      H1193   1.083       .  S
N1189      H1209   1.046       .  S
N1189      H1210   1.045       .  S
C1191      C1194   1.393       .  A
C1191      C1198   1.415       .  A
N1192      H1207   1.046       .  S
N1192      H1208   1.045       .  S
C1194      H1199   1.085       .  S
C1194      C1195   1.398       .  A
C1195      C1196   1.422       .  A
C1195      N1200   1.429       .  S
C1196      C1197   1.408       .  A
C1197      H1201   1.083       .  S
C1197      C1198   1.407       .  A
C1198      N1202   1.438       .  S
N1200      H1203   1.046       .  S
N1200      H1204   1.045       .  S
N1202      H1205   1.046       .  S
N1202      H1206   1.044       .  S
C1211      C1212   1.419       .  A
C1211      C1216   1.407       .  A
C1212      C1213   1.409       .  A
C1212      N1217   1.438       .  S
C1213      H1218   1.084       .  S
C1213      C1214   1.403       .  A
C1214      C1219   1.497       .  S
C1214      C1215   1.413       .  A
C1215      C1216   1.412       .  A
C1215      N1220   1.438       .  S
C1216      H1221   1.083       .  S
N1217      H1237   1.045       .  S
N1217      H1238   1.046       .  S
C1219      C1222   1.406       .  A
C1219      C1226   1.415       .  A
N1220      H1235   1.046       .  S
N1220      H1236   1.045       .  S
C1222      H1227   1.083       .  S
C1222      C1223   1.407       .  A
C1223      C1224   1.406       .  A
C1223      N1228   1.432       .  S
C1224      C1225   1.403       .  A
C1225      H1229   1.083       .  S
C1225      C1226   1.409       .  A
C1226      N1230   1.438       .  S
N1228      H1231   1.045       .  S
N1228      H1232   1.046       .  S
N1230      H1233   1.047       .  S
N1230      H1234   1.045       .  S
C1239      C1240   1.415       .  A
C1239      C1244   1.409       .  A
C1240      C1241   1.409       .  A
C1240      N1245   1.438       .  S
C1241      H1246   1.084       .  S
C1241      C1242   1.403       .  A
C1242      C1247   1.491       .  S
C1242      C1243   1.409       .  A
C1243      C1244   1.411       .  A
C1243      N1248   1.438       .  S
C1244      H1249   1.082       .  S
N1245      H1265   1.046       .  S
N1245      H1266   1.046       .  S
C1247      C1250   1.406       .  A
C1247      C1254   1.405       .  A
N1248      H1263   1.046       .  S
N1248      H1264   1.046       .  S
C1250      H1255   1.083       .  S
C1250      C1251   1.414       .  A
C1251      C1252   1.413       .  A
C1251      N1256   1.431       .  S
C1252      C1253   1.409       .  A
C1253      H1257   1.072       .  S
C1253      C1254   1.403       .  A
C1254      N1258   1.439       .  S
N1256      H1259   1.046       .  S
N1256      H1260   1.045       .  S
N1258      H1261   1.046       .  S
N1258      H1262   1.046       .  S
C1267      C1268   1.418       .  A
C1267      C1272   1.407       .  A
C1268      C1269   1.410       .  A
C1268      N1273   1.438       .  S
C1269      H1274   1.083       .  S
C1269      C1270   1.403       .  A
C1270      C1275   1.498       .  S
C1270      C1271   1.413       .  A
C1271      C1272   1.414       .  A
C1271      N1276   1.438       .  S
C1272      H1277   1.083       .  S
N1273      H1293   1.046       .  S
N1273      H1294   1.045       .  S
C1275      C1278   1.408       .  A
C1275      C1282   1.418       .  A
N1276      H1291   1.045       .  S
N1276      H1292   1.046       .  S
C1278      H1283   1.084       .  S
C1278      C1279   1.411       .  A
C1279      C1280   1.407       .  A
C1279      N1284   1.432       .  S
C1280      C1281   1.402       .  A
C1281      H1285   1.084       .  S
C1281      C1282   1.401       .  A
C1282      N1286   1.432       .  S
N1284      H1287   1.045       .  S
N1284      H1288   1.046       .  S
N1286      H1289   1.044       .  S
N1286      H1290   1.045       .  S
C1295      C1296   1.417       .  A
C1295      C1300   1.408       .  A
C1296      C1297   1.400       .  A
C1296      N1301   1.431       .  S
C1297      H1302   1.084       .  S
C1297      C1298   1.398       .  A
C1298      C1303   1.479       .  S
C1298      C1299   1.408       .  A
C1299      C1300   1.409       .  A
C1299      N1304   1.438       .  S
C1300      H1305   1.083       .  S
N1301      H1321   1.046       .  S
N1301      H1322   1.045       .  S
C1303      C1306   1.405       .  A
C1303      C1310   1.407       .  A
N1304      H1319   1.046       .  S
N1304      H1320   1.045       .  S
C1306      H1311   1.084       .  S
C1306      C1307   1.408       .  A
C1307      C1308   1.419       .  A
C1307      N1312   1.437       .  S
C1308      C1309   1.407       .  A
C1309      H1313   1.078       .  S
C1309      C1310   1.388       .  A
C1310      N1314   1.434       .  S
N1312      H1315   1.045       .  S
N1312      H1316   1.044       .  S
N1314      H1317   1.044       .  S
N1314      H1318   1.046       .  S
C1323      C1324   1.413       .  A
C1323      C1328   1.404       .  A
C1324      C1325   1.408       .  A
C1324      N1329   1.438       .  S
C1325      H1330   1.084       .  S
C1325      C1326   1.404       .  A
C1326      C1331   1.486       .  S
C1326      C1327   1.410       .  A
C1327      C1328   1.404       .  A
C1327      N1332   1.438       .  S
C1328      H1333   1.083       .  S
N1329      H1349   1.045       .  S
N1329      H1350   1.045       .  S
C1331      C1334   1.399       .  A
C1331      C1338   1.410       .  A
N1332      H1347   1.046       .  S
N1332      H1348   1.045       .  S
C1334      H1339   1.084       .  S
C1334      C1335   1.396       .  A
C1335      C1336   1.421       .  A
C1335      N1340   1.435       .  S
C1336      C1337   1.404       .  A
C1337      H1341   1.084       .  S
C1337      C1338   1.409       .  A
C1338      N1342   1.437       .  S
N1340      H1343   1.047       .  S
N1340      H1344   1.034       .  S
N1342      H1345   1.045       .  S
N1342      H1346   1.046       .  S
C1351      C1352   1.415       .  A
C1351      C1356   1.410       .  A
C1352      C1353   1.403       .  A
C1352      N1357   1.431       .  S
C1353      H1358   1.084       .  S
C1353      C1354   1.399       .  A
C1354      C1359   1.485       .  S
C1354      C1355   1.409       .  A
C1355      C1356   1.412       .  A
C1355      N1360   1.438       .  S
C1356      H1361   1.083       .  S
N1357      H1377   1.046       .  S
N1357      H1378   1.046       .  S
C1359      C1362   1.406       .  A
C1359      C1366   1.410       .  A
N1360      H1375   1.045       .  S
N1360      H1376   1.046       .  S
C1362      H1367   1.083       .  S
C1362      C1363   1.411       .  A
C1363      C1364   1.410       .  A
C1363      N1368   1.432       .  S
C1364      C1365   1.404       .  A
C1365      H1369   1.078       .  S
C1365      C1366   1.394       .  A
C1366      N1370   1.433       .  S
N1368      H1371   1.045       .  S
N1368      H1372   1.046       .  S
N1370      H1373   1.044       .  S
N1370      H1374   1.046       .  S
C1379      C1380   1.416       .  A
C1379      C1384   1.405       .  A
C1380      C1381   1.407       .  A
C1380      N1385   1.439       .  S
C1381      H1386   1.084       .  S
C1381      C1382   1.406       .  A
C1382      C1387   1.501       .  S
C1382      C1383   1.415       .  A
C1383      C1384   1.409       .  A
C1383      N1388   1.438       .  S
C1384      H1389   1.084       .  S
N1385      H1405   1.044       .  S
N1385      H1406   1.046       .  S
C1387      C1390   1.404       .  A
C1387      C1394   1.416       .  A
N1388      H1403   1.046       .  S
N1388      H1404   1.045       .  S
C1390      H1395   1.083       .  S
C1390      C1391   1.409       .  A
C1391      C1392   1.417       .  A
C1391      N1396   1.437       .  S
C1392      C1393   1.405       .  A
C1393      H1397   1.084       .  S
C1393      C1394   1.413       .  A
C1394      N1398   1.438       .  S
N1396      H1399   1.046       .  S
N1396      H1400   1.045       .  S
N1398      H1401   1.046       .  S
N1398      H1402   1.046       .  S
C1407      C1408   1.415       .  A
C1407      C1412   1.410       .  A
C1408      C1409   1.415       .  A
C1408      N1413   1.436       .  S
C1409      H1414   1.083       .  S
C1409      C1410   1.405       .  A
C1410      C1415   1.492       .  S
C1410      C1411   1.406       .  A
C1411      C1412   1.406       .  A
C1411      N1416   1.438       .  S
C1412      H1417   1.078       .  S
N1413      H1433   1.045       .  S
N1413      H1434   1.045       .  S
C1415      C1418   1.401       .  A
C1415      C1422   1.410       .  A
N1416      H1431   1.045       .  S
N1416      H1432   1.046       .  S
C1418      H1423   1.084       .  S
C1418      C1419   1.410       .  A
C1419      C1420   1.420       .  A
C1419      N1424   1.438       .  S
C1420      C1421   1.408       .  A
C1421      H1425   1.082       .  S
C1421      C1422   1.412       .  A
C1422      N1426   1.437       .  S
N1424      H1427   1.046       .  S
N1424      H1428   1.046       .  S
N1426      H1429   1.045       .  S
N1426      H1430   1.046       .  S
C1435      C1436   1.418       .  A
C1435      C1440   1.405       .  A
C1436      C1437   1.410       .  A
C1436      N1441   1.438       .  S
C1437      H1442   1.084       .  S
C1437      C1438   1.403       .  A
C1438      C1443   1.498       .  S
C1438      C1439   1.414       .  A
C1439      C1440   1.411       .  A
C1439      N1444   1.438       .  S
C1440      H1445   1.083       .  S
N1441      H1461   1.046       .  S
N1441      H1462   1.046       .  S
C1443      C1446   1.407       .  A
C1443      C1450   1.415       .  A
N1444      H1459   1.046       .  S
N1444      H1460   1.046       .  S
C1446      H1451   1.083       .  S
C1446      C1447   1.409       .  A
C1447      C1448   1.406       .  A
C1447      N1452   1.437       .  S
C1448      C1449   1.406       .  A
C1449      H1453   1.084       .  S
C1449      C1450   1.409       .  A
C1450      N1454   1.438       .  S
N1452      H1455   1.045       .  S
N1452      H1456   1.046       .  S
N1454      H1457   1.046       .  S
N1454      H1458   1.045       .  S
C1463      C1464   1.415       .  A
C1463      C1468   1.407       .  A
C1464      C1465   1.407       .  A
C1464      N1469   1.438       .  S
C1465      H1470   1.084       .  S
C1465      C1466   1.403       .  A
C1466      C1471   1.486       .  S
C1466      C1467   1.409       .  A
C1467      C1468   1.409       .  A
C1467      N1472   1.438       .  S
C1468      H1473   1.083       .  S
N1469      H1489   1.045       .  S
N1469      H1490   1.046       .  S
C1471      C1474   1.406       .  A
C1471      C1478   1.404       .  A
N1472      H1487   1.046       .  S
N1472      H1488   1.045       .  S
C1474      H1479   1.084       .  S
C1474      C1475   1.411       .  A
C1475      C1476   1.421       .  A
C1475      N1480   1.437       .  S
C1476      C1477   1.409       .  A
C1477      H1481   1.077       .  S
C1477      C1478   1.398       .  A
C1478      N1482   1.439       .  S
N1480      H1483   1.045       .  S
N1480      H1484   1.043       .  S
N1482      H1485   1.046       .  S
N1482      H1486   1.045       .  S
C1491      C1492   1.409       .  A
C1491      C1496   1.406       .  A
C1492      C1493   1.408       .  A
C1492      N1497   1.432       .  S
C1493      H1498   1.083       .  S
C1493      C1494   1.407       .  A
C1494      C1499   1.499       .  S
C1494      C1495   1.414       .  A
C1495      C1496   1.405       .  A
C1495      N1500   1.438       .  S
C1496      H1501   1.078       .  S
N1497      H1517   1.046       .  S
N1497      H1518   1.045       .  S
C1499      C1502   1.405       .  A
C1499      C1506   1.417       .  A
N1500      H1515   1.045       .  S
N1500      H1516   1.046       .  S
C1502      H1507   1.084       .  S
C1502      C1503   1.404       .  A
C1503      C1504   1.411       .  A
C1503      N1508   1.432       .  S
C1504      C1505   1.403       .  A
C1505      H1509   1.084       .  S
C1505      C1506   1.412       .  A
C1506      N1510   1.437       .  S
N1508      H1511   1.045       .  S
N1508      H1512   1.046       .  S
N1510      H1513   1.046       .  S
N1510      H1514   1.045       .  S
C1519      C1520   1.413       .  A
C1519      C1524   1.401       .  A
C1520      C1521   1.399       .  A
C1520      N1525   1.439       .  S
C1521      H1526   1.084       .  S
C1521      C1522   1.397       .  A
C1522      C1527   1.463       .  S
C1522      C1523   1.406       .  A
C1523      C1524   1.402       .  A
C1523      N1528   1.438       .  S
C1524      H1529   1.084       .  S
N1525      H1545   1.047       .  S
N1525      H1546   1.045       .  S
C1527      C1530   1.394       .  A
C1527      C1534   1.406       .  A
N1528      H1543   1.045       .  S
N1528      H1544   1.045       .  S
C1530      H1535   1.085       .  S
C1530      C1531   1.394       .  A
C1531      C1532   1.423       .  A
C1531      N1536   1.437       .  S
C1532      C1533   1.400       .  A
C1533      H1537   1.083       .  S
C1533      C1534   1.400       .  A
C1534      N1538   1.438       .  S
N1536      H1539   1.046       .  S
N1536      H1540   1.037       .  S
N1538      H1541   1.045       .  S
N1538      H1542   1.045       .  S
C1547      C1548   1.405       .  A
C1547      C1552   1.404       .  A
C1548      C1549   1.395       .  A
C1548      N1553   1.431       .  S
C1549      H1554   1.084       .  S
C1549      C1550   1.401       .  A
C1550      C1555   1.464       .  S
C1550      C1551   1.405       .  A
C1551      C1552   1.396       .  A
C1551      N1556   1.438       .  S
C1552      H1557   1.082       .  S
N1553      H1573   1.046       .  S
N1553      H1574   1.046       .  S
C1555      C1558   1.398       .  A
C1555      C1562   1.405       .  A
N1556      H1571   1.046       .  S
N1556      H1572   1.046       .  S
C1558      H1563   1.084       .  S
C1558      C1559   1.396       .  A
C1559      C1560   1.413       .  A
C1559      N1564   1.438       .  S
C1560      C1561   1.403       .  A
C1561      H1565   1.083       .  S
C1561      C1562   1.396       .  A
C1562      N1566   1.433       .  S
N1564      H1567   1.046       .  S
N1564      H1568   1.045       .  S
N1566      H1569   1.045       .  S
N1566      H1570   1.046       .  S
C1575      C1576   1.410       .  A
C1575      C1580   1.404       .  A
C1576      C1577   1.401       .  A
C1576      N1581   1.438       .  S
C1577      H1582   1.084       .  S
C1577      C1578   1.398       .  A
C1578      C1583   1.470       .  S
C1578      C1579   1.408       .  A
C1579      C1580   1.406       .  A
C1579      N1584   1.437       .  S
C1580      H1585   1.084       .  S
N1581      H1601   1.046       .  S
N1581      H1602   1.045       .  S
C1583      C1586   1.398       .  A
C1583      C1590   1.406       .  A
N1584      H1599   1.046       .  S
N1584      H1600   1.045       .  S
C1586      H1591   1.084       .  S
C1586      C1587   1.397       .  A
C1587      C1588   1.408       .  A
C1587      N1592   1.429       .  S
C1588      C1589   1.408       .  A
C1589      H1593   1.084       .  S
C1589      C1590   1.406       .  A
C1590      N1594   1.437       .  S
N1592      H1595   1.045       .  S
N1592      H1596   1.046       .  S
N1594      H1597   1.046       .  S
N1594      H1598   1.045       .  S
C1603      C1604   1.408       .  A
C1603      C1608   1.408       .  A
C1604      C1605   1.399       .  A
C1604      N1609   1.432       .  S
C1605      H1610   1.084       .  S
C1605      C1606   1.400       .  A
C1606      C1611   1.468       .  S
C1606      C1607   1.403       .  A
C1607      C1608   1.399       .  A
C1607      N1612   1.438       .  S
C1608      H1613   1.083       .  S
N1609      H1629   1.045       .  S
N1609      H1630   1.046       .  S
C1611      C1614   1.399       .  A
C1611      C1618   1.414       .  A
N1612      H1627   1.046       .  S
N1612      H1628   1.045       .  S
C1614      H1619   1.084       .  S
C1614      C1615   1.400       .  A
C1615      C1616   1.409       .  A
C1615      N1620   1.438       .  S
C1616      C1617   1.404       .  A
C1617      H1621   1.083       .  S
C1617      C1618   1.399       .  A
C1618      N1622   1.439       .  S
N1620      H1623   1.046       .  S
N1620      H1624   1.046       .  S
N1622      H1625   1.045       .  S
N1622      H1626   1.043       .  S
C1631      C1632   1.414       .  A
C1631      C1636   1.404       .  A
C1632      C1633   1.396       .  A
C1632      N1637   1.430       .  S
C1633      H1638   1.084       .  S
C1633      C1634   1.396       .  A
C1634      C1639   1.462       .  S
C1634      C1635   1.404       .  A
C1635      C1636   1.400       .  A
C1635      N1640   1.438       .  S
C1636      H1641   1.081       .  S
N1637      H1657   1.046       .  S
N1637      H1658   1.046       .  S
C1639      C1642   1.399       .  A
C1639      C1646   1.407       .  A
N1640      H1655   1.045       .  S
N1640      H1656   1.046       .  S
C1642      H1647   1.084       .  S
C1642      C1643   1.399       .  A
C1643      C1644   1.408       .  A
C1643      N1648   1.439       .  S
C1644      C1645   1.398       .  A
C1645      H1649   1.084       .  S
C1645      C1646   1.400       .  A
C1646      N1650   1.438       .  S
N1648      H1651   1.046       .  S
N1648      H1652   1.046       .  S
N1650      H1653   1.046       .  S
N1650      H1654   1.045       .  S
C1659      C1660   1.408       .  A
C1659      C1664   1.399       .  A
C1660      C1661   1.398       .  A
C1660      N1665   1.432       .  S
C1661      H1666   1.084       .  S
C1661      C1662   1.402       .  A
C1662      C1667   1.471       .  S
C1662      C1663   1.409       .  A
C1663      C1664   1.397       .  A
C1663      N1668   1.438       .  S
C1664      H1669   1.082       .  S
N1665      H1685   1.046       .  S
N1665      H1686   1.045       .  S
C1667      C1670   1.402       .  A
C1667      C1674   1.410       .  A
N1668      H1683   1.046       .  S
N1668      H1684   1.046       .  S
C1670      H1675   1.084       .  S
C1670      C1671   1.397       .  A
C1671      C1672   1.407       .  A
C1671      N1676   1.439       .  S
C1672      C1673   1.398       .  A
C1673      H1677   1.084       .  S
C1673      C1674   1.402       .  A
C1674      N1678   1.438       .  S
N1676      H1679   1.046       .  S
N1676      H1680   1.045       .  S
N1678      H1681   1.045       .  S
N1678      H1682   1.046       .  S
C1687      C1688   1.409       .  A
C1687      C1692   1.401       .  A
C1688      C1689   1.401       .  A
C1688      N1693   1.432       .  S
C1689      H1694   1.084       .  S
C1689      C1690   1.403       .  A
C1690      C1695   1.483       .  S
C1690      C1691   1.411       .  A
C1691      C1692   1.404       .  A
C1691      N1696   1.438       .  S
C1692      H1697   1.078       .  S
N1693      H1713   1.046       .  S
N1693      H1714   1.045       .  S
C1695      C1698   1.403       .  A
C1695      C1702   1.412       .  A
N1696      H1711   1.046       .  S
N1696      H1712   1.046       .  S
C1698      H1703   1.084       .  S
C1698      C1699   1.403       .  A
C1699      C1700   1.409       .  A
C1699      N1704   1.438       .  S
C1700      C1701   1.400       .  A
C1701      H1705   1.084       .  S
C1701      C1702   1.405       .  A
C1702      N1706   1.438       .  S
N1704      H1707   1.045       .  S
N1704      H1708   1.046       .  S
N1706      H1709   1.046       .  S
N1706      H1710   1.046       .  S
C1715      C1716   1.406       .  A
C1715      C1720   1.396       .  A
C1716      C1717   1.402       .  A
C1716      N1721   1.438       .  S
C1717      H1722   1.084       .  S
C1717      C1718   1.401       .  A
C1718      C1723   1.468       .  S
C1718      C1719   1.410       .  A
C1719      C1720   1.397       .  A
C1719      N1724   1.439       .  S
C1720      H1725   1.084       .  S
N1721      H1741   1.046       .  S
N1721      H1742   1.045       .  S
C1723      C1726   1.397       .  A
C1723      C1730   1.408       .  A
N1724      H1739   1.045       .  S
N1724      H1740   1.046       .  S
C1726      H1731   1.084       .  S
C1726      C1727   1.388       .  A
C1727      C1728   1.411       .  A
C1727      N1732   1.427       .  S
C1728      C1729   1.405       .  A
C1729      H1733   1.084       .  S
C1729      C1730   1.402       .  A
C1730      N1734   1.437       .  S
N1732      H1735   1.043       .  S
N1732      H1736   1.043       .  S
N1734      H1737   1.045       .  S
N1734      H1738   1.046       .  S
