geometry optimzed in LAMMPS
_audit_creation_date              2020-11-30 
_audit_creation_method            'lammps2cif' 
_symmetry_space_group_name_H-M    'P1' 
_symmetry_Int_Tables_number       1 
_symmetry_cell_setting            triclinic 
loop_ 
_symmetry_equiv_pos_as_xyz 
  x,y,z 
_cell_length_a                    41.50187868 
_cell_length_b                    41.84393001858366 
_cell_length_c                    42.046768325698984 
_cell_angle_alpha                 90.03504294704861 
_cell_angle_beta                  89.74123173819291 
_cell_angle_gamma                 89.59268406098796 
loop_ 
_atom_site_label 
_atom_site_type_symbol 
_atom_site_fract_x 
_atom_site_fract_y 
_atom_site_fract_z 
_atom_site_charge 
O1          O  0.87086485  0.51506008  0.78163245    -0.72300
O2          O  0.80247664  0.51864803  0.71252996    -0.73300
O3          O  0.80267331  0.51825363  0.77982552    -0.61900
O4          O  0.87089363  0.51711768  0.71298038    -0.70300
O5          O  0.86929176  0.46428268  0.71081124    -0.69900
O6          O  0.80117489  0.46534778  0.77950820    -0.61100
O7          O  0.80132719  0.46576583  0.71246381    -0.73600
O8          O  0.86924551  0.46235323  0.77923265    -0.72400
Cu9        Cu  0.83703409  0.51912317  0.74676174     1.04600
Cu10       Cu  0.83547102  0.46265215  0.74548265     1.04300
C11         C  0.87990242  0.48769752  0.79222793     0.93900
C12         C  0.79059822  0.49244326  0.70217417     0.93000
C13         C  0.79069518  0.49219375  0.79001574     0.85200
C14         C  0.87975724  0.49087206  0.70004312     0.91500
O15         O  0.56669467  0.72466647  0.77074170    -0.72300
O16         O  0.55921753  0.79223443  0.83862302    -0.73300
O17         O  0.56701395  0.72421711  0.83816302    -0.61900
O18         O  0.55981439  0.79122275  0.77134990    -0.70300
O19         O  0.50655153  0.78697288  0.77222082    -0.69900
O20         O  0.51402194  0.71793004  0.83841758    -0.61100
O21         O  0.50615360  0.78558385  0.83990302    -0.73600
O22         O  0.51360063  0.72007030  0.77096338    -0.72400
Cu23       Cu  0.56502991  0.75827309  0.80499254     1.04600
Cu24       Cu  0.50822835  0.75246426  0.80560374     1.04300
C25         C  0.54106827  0.71256902  0.75920682     0.93900
C26         C  0.53135441  0.79997529  0.84933936     0.93000
C27         C  0.54199449  0.70965295  0.84814436     0.85200
C28         C  0.53222189  0.79903598  0.76048448     0.91500
O29         O  0.73859000  0.77319432  0.52169629    -0.72300
O30         O  0.81423052  0.83339460  0.51456304    -0.73300
O31         O  0.74612648  0.84060554  0.51945830    -0.61900
O32         O  0.80551892  0.76547005  0.51846869    -0.70300
O33         O  0.80306565  0.76381152  0.46572736    -0.69900
O34         O  0.74162462  0.83944151  0.46706915    -0.61100
O35         O  0.80982626  0.83146309  0.46212075    -0.73600
O36         O  0.73584556  0.77177239  0.46913674    -0.72400
Cu37       Cu  0.77629068  0.80344895  0.52036133     1.04600
Cu38       Cu  0.77253312  0.80174108  0.46418966     1.04300
C39         C  0.72607979  0.76207995  0.49624731     0.93900
C40         C  0.82403871  0.84180646  0.48688497     0.93000
C41         C  0.73379026  0.85165726  0.49398186     0.85200
C42         C  0.81269900  0.75202742  0.49214416     0.91500
C43         C  0.59798993  0.44395624  0.94223519     0.46100
H44         H  0.61600373  0.42967243  0.92855187    -0.02900
C45         C  0.55685420  0.47793587  0.97450657     0.46200
H46         H  0.53943251  0.49238016  0.98829444    -0.02900
C47         C  0.60046110  0.47946914  0.93556283    -0.16600
C48         C  0.56297763  0.43552653  0.93499801    -0.16400
C49         C  0.60145453  0.44048138  0.97825916    -0.16700
C50         C  0.57828873  0.49757844  0.95166287    -0.16700
C51         C  0.54087090  0.45213873  0.95348157    -0.16300
C52         C  0.58070755  0.45938065  0.99587649    -0.16600
C53         C  0.55328250  0.52690320  0.52806346     0.46100
H54         H  0.53616642  0.51481255  0.51201580    -0.02900
C55         C  0.59360866  0.55620543  0.56496164     0.46200
H56         H  0.61037227  0.56875686  0.58112627    -0.02900
C57         C  0.57238133  0.50391629  0.54976100    -0.16600
C58         C  0.57937947  0.54552392  0.50992558    -0.16400
C59         C  0.53733512  0.55159617  0.55065796    -0.16700
C60         C  0.59441877  0.51968250  0.56853295    -0.16700
C61         C  0.59955891  0.56249362  0.52951879    -0.16300
C62         C  0.55867698  0.56615721  0.57046589    -0.16600
C63         C  0.46606088  0.93815928  0.56381908     0.46100
H64         H  0.45035480  0.92312958  0.57908179    -0.02900
C65         C  0.50258066  0.97352041  0.52826386     0.46200
H66         H  0.51844550  0.98838709  0.51306199    -0.02900
C67         C  0.46857212  0.97256009  0.57552247    -0.16600
C68         C  0.50078521  0.92612968  0.56191531    -0.16400
C69         C  0.45450637  0.94051209  0.52948850    -0.16700
C70         C  0.48862784  0.99127704  0.55743872    -0.16700
C71         C  0.51993675  0.94402698  0.54214823    -0.16300
C72         C  0.47295284  0.96022493  0.51085887    -0.16600
O73         O  0.51678811  0.28622689  0.66376194    -0.72300
O74         O  0.51293707  0.21676349  0.72853794    -0.73300
O75         O  0.51671288  0.28370918  0.73088619    -0.61900
O76         O  0.51289039  0.21850569  0.66184361    -0.70300
O77         O  0.56603588  0.21396165  0.66185281    -0.69900
O78         O  0.56996386  0.28072459  0.73067838    -0.61100
O79         O  0.56617333  0.21315080  0.72896942    -0.73600
O80         O  0.57015494  0.28197918  0.66253441    -0.72400
Cu81       Cu  0.51306463  0.25151176  0.69609184     1.04600
Cu82       Cu  0.57001486  0.24747117  0.69583002     1.04300
C83         C  0.54408156  0.29527350  0.65313791     0.93900
C84         C  0.53871498  0.20392192  0.73916244     0.93000
C85         C  0.54374721  0.29186406  0.74258220     0.85200
C86         C  0.53859056  0.20473105  0.65188913     0.91500
C87         C  0.46553190  0.05923641  0.93229892     0.46100
H88         H  0.45195122  0.07116821  0.91309144    -0.02900
C89         C  0.50062714  0.03093371  0.97494609     0.46200
H90         H  0.51542273  0.01930825  0.99348530    -0.02900
C91         C  0.50073651  0.06875278  0.93098305    -0.16600
C92         C  0.45421922  0.06653489  0.96634588    -0.16400
C93         C  0.46531937  0.02271886  0.92981231    -0.16700
C94         C  0.51926464  0.05485218  0.95381663    -0.16700
C95         C  0.47200839  0.05025043  0.98898650    -0.16300
C96         C  0.48478932  0.00720431  0.95162453    -0.16600
O97         O  0.75076153  0.23404592  0.96837769    -0.72300
O98         O  0.81862776  0.16555101  0.97344500    -0.73300
O99         O  0.75062337  0.16647305  0.96423135    -0.61900
O100        O  0.81747857  0.23297788  0.97668731    -0.70300
O101        O  0.81042338  0.23078642  0.02886436    -0.69900
O102        O  0.74299547  0.16305518  0.01616790    -0.61100
O103        O  0.81128807  0.16285865  0.02548297    -0.73600
O104        O  0.74340501  0.23070949  0.02051234    -0.72400
Cu105      Cu  0.78460111  0.19958770  0.96890816     1.04600
Cu106      Cu  0.77678203  0.19648077  0.02458016     1.04300
C107        C  0.73731185  0.24409448  0.99392532     0.93900
C108        C  0.82655657  0.15407474  0.00047807     0.93000
C109        C  0.73537972  0.15480049  0.98787011     0.85200
C110        C  0.82375235  0.24342432  0.00447960     0.91500
O111        O  0.26460339  0.95673855  0.72464342    -0.72300
O112        O  0.18899988  0.96021696  0.78581467    -0.73300
O113        O  0.19599023  0.95337070  0.71800554    -0.61900
O114        O  0.25762246  0.96213828  0.79039445    -0.70300
O115        O  0.25666609  0.01482228  0.78508281    -0.69900
O116        O  0.19241997  0.00613251  0.71390549    -0.61100
O117        O  0.18842077  0.01286398  0.78086614    -0.73600
O118        O  0.26075851  0.00928565  0.71922353    -0.72400
Cu119      Cu  0.22655009  0.95620468  0.75481936     1.04600
Cu120      Cu  0.22421812  0.01251364  0.74955011     1.04300
C121        C  0.27576264  0.98312183  0.71400189     0.93900
C122        C  0.17741217  0.98759368  0.79367618     0.93000
C123        C  0.18464802  0.97822634  0.70430528     0.85200
C124        C  0.26833045  0.98961682  0.79799442     0.91500
O125        O  0.03435391  0.72272761  0.16355468    -0.72300
O126        O  0.04113457  0.78838847  0.23297277    -0.73300
O127        O  0.03193994  0.72221647  0.23086741    -0.61900
O128        O  0.04434362  0.79032398  0.16535446    -0.70300
O129        O  0.99156328  0.79796669  0.16309775    -0.69900
O130        O  0.97907298  0.73109851  0.23063687    -0.61100
O131        O  0.98848881  0.79712095  0.23056736    -0.73600
O132        O  0.98156955  0.73009140  0.16273071    -0.72400
Cu133      Cu  0.03976247  0.75565299  0.19795102     1.04600
Cu134      Cu  0.98333365  0.76430548  0.19635721     1.04300
C135        C  0.00661671  0.71500906  0.15298876     0.93900
C136        C  0.01570236  0.80227759  0.24356718     0.93000
C137        C  0.00388465  0.71721808  0.24223398     0.85200
C138        C  0.02006683  0.80577368  0.15461087     0.91500
O139        O  0.24030352  0.66567085  0.53204501    -0.72300
O140        O  0.30018127  0.74094360  0.53577282    -0.73300
O141        O  0.23386500  0.73313938  0.52753577    -0.61900
O142        O  0.30807517  0.67339971  0.54117335    -0.70300
O143        O  0.31556904  0.66973356  0.48908847    -0.69900
O144        O  0.24145708  0.73041441  0.47551098    -0.61100
O145        O  0.30772587  0.73717021  0.48370131    -0.73600
O146        O  0.24803484  0.66305110  0.47999832    -0.72400
Cu147      Cu  0.27042412  0.70313069  0.53597880     1.04600
Cu148      Cu  0.27852440  0.69972121  0.48032441     1.04300
C149        C  0.23387396  0.65310634  0.50506609     0.93900
C150        C  0.31202518  0.75192341  0.50988100     0.93000
C151        C  0.22673423  0.74243728  0.49949699     0.85200
C152        C  0.32389400  0.66237400  0.51740996     0.91500
O153        O  0.68908437  0.52426531  0.21729658    -0.72300
O154        O  0.75449152  0.52876550  0.28749613    -0.73300
O155        O  0.75692602  0.52798214  0.22114349    -0.61900
O156        O  0.68633190  0.52646867  0.28495857    -0.70300
O157        O  0.68898957  0.47372684  0.28801751    -0.69900
O158        O  0.75894878  0.47496957  0.22130668    -0.61100
O159        O  0.75717759  0.47595427  0.28808621    -0.73600
O160        O  0.69047874  0.47129274  0.22046403    -0.72400
Cu161      Cu  0.72134630  0.52868397  0.25268448     1.04600
Cu162      Cu  0.72377006  0.47211590  0.25447989     1.04300
C163        C  0.68003659  0.49683407  0.20746869     0.93900
C164        C  0.76719869  0.50293051  0.29799042     0.93000
C165        C  0.76980420  0.50189367  0.21176023     0.85200
C166        C  0.67711415  0.50033942  0.29758323     0.91500
C167        C  0.96613275  0.56404819  0.43494311     0.46100
H168        H  0.94896196  0.57818517  0.42039882    -0.02900
C169        C  0.00501879  0.52923648  0.46861147     0.46200
H170        H  0.02146985  0.51387014  0.48274331    -0.02900
C171        C  0.96836743  0.52954388  0.42372811    -0.16600
C172        C  0.00075581  0.57647831  0.43453642    -0.16400
C173        C  0.95658227  0.56246975  0.47002895    -0.16700
C174        C  0.98979697  0.51134659  0.44053457    -0.16700
C175        C  0.02119541  0.55898629  0.45375607    -0.16300
C176        C  0.97608045  0.54266712  0.48771262    -0.16600
C177        C  0.08778072  0.95112786  0.43722037     0.46100
H178        H  0.10368054  0.93756962  0.42056896    -0.02900
C179        C  0.05071823  0.98205039  0.47655218     0.46200
H180        H  0.03486042  0.99502160  0.49362718    -0.02900
C181        C  0.05199037  0.94577723  0.43102952    -0.16600
C182        C  0.09292876  0.94177007  0.47208009    -0.16400
C183        C  0.09291879  0.98740472  0.43621220    -0.16700
C184        C  0.03216186  0.96082554  0.45264710    -0.16700
C185        C  0.07439844  0.95900650  0.49318203    -0.16300
C186        C  0.07231903  0.00413834  0.45612007    -0.16600
C187        C  0.96391480  0.44371223  0.06801845     0.46100
H188        H  0.94901749  0.42894982  0.08425707    -0.02900
C189        C  0.99808233  0.47872898  0.02975004     0.46200
H190        H  0.01254420  0.49376721  0.01334852    -0.02900
C191        C  0.96536117  0.47868901  0.07804204    -0.16600
C192        C  0.99905041  0.43249395  0.06539636    -0.16400
C193        C  0.95139440  0.44397029  0.03389883    -0.16700
C194        C  0.98420148  0.49710923  0.05862994    -0.16700
C195        C  0.01691284  0.45014344  0.04405743    -0.16300
C196        C  0.96867678  0.46323032  0.01376214    -0.16600
O197        O  0.37256664  0.03598157  0.29036549    -0.72300
O198        O  0.29906054  0.04377893  0.22854771    -0.73300
O199        O  0.30415541  0.03783798  0.29487682    -0.61900
O200        O  0.36718667  0.04302785  0.22278391    -0.70300
O201        O  0.36647815  0.99050690  0.21715213    -0.69900
O202        O  0.30337731  0.98524332  0.28997071    -0.61100
O203        O  0.29880677  0.99097064  0.22400290    -0.73600
O204        O  0.37150732  0.98347091  0.28455675    -0.72400
Cu205      Cu  0.33607484  0.04200339  0.25930777     1.04600
Cu206      Cu  0.33530206  0.98576083  0.25376180     1.04300
C207        C  0.38300744  0.00817418  0.29799799     0.93900
C208        C  0.28654238  0.01820221  0.21761844     0.93000
C209        C  0.29264886  0.01082055  0.30304982     0.85200
C210        C  0.37587039  0.01792641  0.20759230     0.91500
C211        C  0.10049048  0.06971025  0.05633396     0.46100
H212        H  0.11629181  0.08607617  0.06985728    -0.02900
C213        C  0.06318919  0.03163177  0.02475376     0.46200
H214        H  0.04697952  0.01572244  0.01116761    -0.02900
C215        C  0.10983182  0.06658865  0.02131386    -0.16600
C216        C  0.10026040  0.03557453  0.06928554    -0.16400
C217        C  0.06530261  0.08033490  0.05659599    -0.16700
C218        C  0.09094523  0.04560496  0.00477170    -0.16700
C219        C  0.07991573  0.01537396  0.05326711    -0.16300
C220        C  0.04562542  0.06089825  0.03915025    -0.16600
O221        O  0.02194304  0.21491461  0.33906589    -0.72300
O222        O  0.00786173  0.27764650  0.26703359    -0.73300
O223        O  0.01857763  0.21196725  0.27113399    -0.61900
O224        O  0.00974838  0.28171880  0.33495863    -0.70300
O225        O  0.06227193  0.29000476  0.33356487    -0.69900
O226        O  0.07108218  0.22051808  0.26712445    -0.61100
O227        O  0.06047042  0.28626251  0.26564942    -0.73600
O228        O  0.07458720  0.22278953  0.33500198    -0.72400
Cu229      Cu  0.01273528  0.24627625  0.30341969     1.04600
Cu230      Cu  0.06893478  0.25519214  0.30054227     1.04300
C231        C  0.05079083  0.20846431  0.34777389     0.93900
C232        C  0.03250047  0.29036540  0.25382670     0.93000
C233        C  0.04556260  0.20666109  0.25738556     0.85200
C234        C  0.03423472  0.29724172  0.34438579     0.91500
O235        O  0.24206848  0.27811440  0.01538743    -0.72300
O236        O  0.31249384  0.34335491  0.01387263    -0.73300
O237        O  0.24413097  0.34589048  0.01752331    -0.61900
O238        O  0.30915426  0.27616874  0.01311431    -0.70300
O239        O  0.30783016  0.27706658  0.96036678    -0.69900
O240        O  0.24084275  0.34743549  0.96501975    -0.61100
O241        O  0.30954977  0.34464455  0.96135687    -0.73600
O242        O  0.24019235  0.27932164  0.96276551    -0.72400
Cu243      Cu  0.27695671  0.31110786  0.01675628     1.04600
Cu244      Cu  0.27446411  0.31242264  0.96051019     1.04300
C245        C  0.23117185  0.26720781  0.98916305     0.93900
C246        C  0.32305157  0.35341215  0.98711590     0.93000
C247        C  0.23162186  0.35748733  0.99238294     0.85200
C248        C  0.31826889  0.26497476  0.98634048     0.91500
C249        C  0.19487986  0.18964958  0.96105733    -0.01400
C250        C  0.17972260  0.17845574  0.98883119     0.07200
C251        C  0.17904370  0.19778686  0.01609352    -0.07300
C252        C  0.19405670  0.22757743  0.01643240     0.04700
C253        C  0.21026503  0.23856793  0.98892053    -0.14600
C254        C  0.20970074  0.21959444  0.96119593    -0.07900
C255        C  0.16538840  0.14622475  0.99093387     0.05600
C256        C  0.17863668  0.12456195  0.01272037    -0.09000
C257        C  0.16231952  0.09668821  0.02093868     0.00600
C258        C  0.13238930  0.08981221  0.00674113     0.00500
C259        C  0.12060419  0.11008365  0.98276234    -0.12600
C260        C  0.13665134  0.13840195  0.97504684     0.00900
C261        C  0.17621685  0.07641115  0.04506210     0.40200
C262        C  0.12138416  0.16063547  0.95352826     0.36900
C263        C  0.19712318  0.17010096  0.93280975     0.36600
C264        C  0.19256191  0.24599795  0.04546395     0.37300
N265        N  0.18772353  0.06027732  0.06429884    -0.43400
N266        N  0.10912140  0.17858181  0.93641752    -0.43900
N267        N  0.19134183  0.26062864  0.06881173    -0.41300
N268        N  0.19894300  0.15438654  0.91020543    -0.42700
H269        H  0.22228351  0.22735887  0.93994209     0.13900
H270        H  0.16718035  0.18924138  0.03745890     0.10000
H271        H  0.20090195  0.13044528  0.02475140     0.11000
H272        H  0.09728537  0.10541631  0.97224911     0.16800
C273        C  0.02794224  0.11030406  0.13252053    -0.01400
C274        C  0.04515732  0.13879948  0.13745760     0.07200
C275        C  0.06487324  0.15061541  0.11311910    -0.07300
C276        C  0.06921174  0.13347327  0.08485338     0.04700
C277        C  0.05385776  0.10377920  0.08074275    -0.14600
C278        C  0.03235930  0.09308775  0.10427011    -0.07900
C279        C  0.04477553  0.15547817  0.16854538     0.05600
C280        C  0.07312300  0.15601831  0.18662220    -0.09000
C281        C  0.07409269  0.17180060  0.21601524     0.00600
C282        C  0.04598592  0.18685873  0.22807902     0.00500
C283        C  0.01759424  0.18598153  0.20983109    -0.12600
C284        C  0.01695660  0.17099650  0.18013409     0.00900
C285        C  0.10423624  0.17216643  0.23297143     0.40200
C286        C  0.98805224  0.17329817  0.16123703     0.36900
C287        C  0.00749774  0.09710106  0.15699543     0.36600
C288        C  0.09007095  0.14671094  0.06084321     0.37300
N289        N  0.12861668  0.17249656  0.24620632    -0.43400
N290        N  0.96499404  0.17531020  0.14597167    -0.43900
N291        N  0.10676676  0.15811124  0.04199397    -0.41300
N292        N  0.99106054  0.08661245  0.17662764    -0.42700
H293        H  0.02087795  0.07003381  0.10167450     0.13500
H294        H  0.07766809  0.17285004  0.11665425     0.10000
H295        H  0.09464845  0.14422524  0.17756192     0.11000
H296        H  0.99605503  0.19830950  0.21808682     0.16800
C297        C  0.14762767  0.04697534  0.14411034    -0.01400
C298        C  0.17229604  0.02402190  0.14032531     0.07200
C299        C  0.17016984  0.00126012  0.11599204    -0.07300
C300        C  0.14529778  0.00274909  0.09372907     0.04700
C301        C  0.12170964  0.02715382  0.09616153    -0.14600
C302        C  0.12247594  0.04821954  0.12218739    -0.07900
C303        C  0.20112757  0.02371489  0.16075916     0.05600
C304        C  0.20578620  0.99780519  0.18123598    -0.09000
C305        C  0.23329369  0.99571368  0.20010532     0.00600
C306        C  0.25704344  0.01978678  0.19823695     0.00500
C307        C  0.25214005  0.04594754  0.17794726    -0.12600
C308        C  0.22450683  0.04800927  0.15910809     0.00900
C309        C  0.23572490  0.96926371  0.22206060     0.40200
C310        C  0.22108686  0.07486507  0.13781231     0.36900
C311        C  0.14818310  0.07002793  0.16967412     0.36600
C312        C  0.14647780  0.98069060  0.06736890     0.37300
N313        N  0.23755352  0.94810801  0.23969014    -0.43400
N314        N  0.21849803  0.09655830  0.12093481    -0.43900
N315        N  0.14787370  0.96265718  0.04652521    -0.41300
N316        N  0.14872336  0.08857677  0.19008869    -0.42700
H317        H  0.10424708  0.06681261  0.12443324     0.13500
H318        H  0.18902316  0.98333683  0.11339417     0.10000
H319        H  0.18769808  0.97925400  0.18259673     0.11000
H320        H  0.27016835  0.06452977  0.17640700     0.16800
C321        C  0.10543292  0.45616011  0.02256627    -0.01400
C322        C  0.11252370  0.42493466  0.01187277     0.07200
C323        C  0.08778769  0.40236957  0.01058990    -0.07300
C324        C  0.05651061  0.41010694  0.02040948     0.04700
C325        C  0.04953303  0.44104538  0.03224716    -0.14600
C326        C  0.07395035  0.46412094  0.03211234    -0.07900
C327        C  0.14578106  0.41408311  0.00412777     0.05600
C328        C  0.16873079  0.41336202  0.02843852    -0.09000
C329        C  0.19819527  0.39743097  0.02423307     0.00600
C330        C  0.20474698  0.38099966  0.99537687     0.00500
C331        C  0.18287119  0.38424593  0.97012934    -0.12600
C332        C  0.15363101  0.40068358  0.97427314     0.00900
C333        C  0.22088318  0.39809600  0.05018187     0.40200
C334        C  0.13166012  0.40287332  0.94782697     0.36900
C335        C  0.13008271  0.48024995  0.02407626     0.36600
C336        C  0.03221502  0.38581920  0.01729643     0.37300
N337        N  0.23904528  0.39881930  0.07097472    -0.43400
N338        N  0.11408019  0.40477852  0.92661745    -0.43900
N339        N  0.01338471  0.36573512  0.01473129    -0.41300
N340        N  0.14995154  0.49946262  0.02537513    -0.42700
H341        H  0.06866708  0.48808371  0.04059233     0.13500
H342        H  0.09312776  0.37831225  0.00237883     0.10000
H343        H  0.16300355  0.42403775  0.05131388     0.11000
H344        H  0.18774501  0.37252369  0.94759353     0.16800
C345        C  0.99429822  0.35660691  0.11327917    -0.01400
C346        C  0.01865228  0.36128869  0.13602672     0.07200
C347        C  0.04071923  0.38612275  0.13148078    -0.07300
C348        C  0.03692247  0.40818090  0.10669520     0.04700
C349        C  0.01044618  0.40549357  0.08579333    -0.14600
C350        C  0.99030740  0.37871127  0.08861212    -0.07900
C351        C  0.02091381  0.34185716  0.16557725     0.05600
C352        C  0.04944932  0.32490847  0.17159845    -0.09000
C353        C  0.05374308  0.30824761  0.20013307     0.00600
C354        C  0.02910007  0.30849445  0.22363749     0.00500
C355        C  0.00031370  0.32509149  0.21735992    -0.12600
C356        C  0.99618544  0.34197848  0.18883696     0.00900
C357        C  0.08330938  0.29023048  0.20395482     0.40200
C358        C  0.96685004  0.36020430  0.18458776     0.36900
C359        C  0.97274946  0.32972431  0.11508676     0.36600
C360        C  0.05922095  0.43439263  0.10532512     0.37300
N361        N  0.10700198  0.27580269  0.20693006    -0.43400
N362        N  0.94326346  0.37470135  0.18120927    -0.43900
N363        N  0.07779032  0.45489064  0.10488846    -0.41300
N364        N  0.95541702  0.30822087  0.11647152    -0.42700
H365        H  0.97041270  0.37580676  0.07223679     0.13500
H366        H  0.05999221  0.38936319  0.14850450     0.10000
H367        H  0.06850581  0.32473505  0.15384991     0.11000
H368        H  0.98120866  0.32539092  0.23503739     0.16800
C369        C  0.09599548  0.09095526  0.44829190    -0.01400
C370        C  0.06683400  0.10446134  0.43706823     0.07200
C371        C  0.03855325  0.08653102  0.43975450    -0.07300
C372        C  0.03937146  0.05478145  0.44994761     0.04700
C373        C  0.06923596  0.03975362  0.45648638    -0.14600
C374        C  0.09691265  0.05887438  0.45814005    -0.07900
C375        C  0.06570516  0.13437903  0.41768759     0.05600
C376        C  0.08585756  0.13642482  0.39085065    -0.09000
C377        C  0.08199906  0.16087913  0.36848534     0.00600
C378        C  0.05696837  0.18367308  0.37222214     0.00500
C379        C  0.03729747  0.18225885  0.39942162    -0.12600
C380        C  0.04177013  0.15821782  0.42230490     0.00900
C381        C  0.10282905  0.16068114  0.34088671     0.40200
C382        C  0.02145111  0.15845597  0.45026663     0.36900
C383        C  0.12555419  0.10891689  0.44830041     0.36600
C384        C  0.00908413  0.03823364  0.45163356     0.37300
N385        N  0.11964310  0.16043466  0.31886562    -0.43400
N386        N  0.00514985  0.15856406  0.47266963    -0.43900
N387        N  0.98415464  0.02619525  0.45358155    -0.41300
N388        N  0.14931136  0.12322965  0.44822754    -0.42700
H389        H  0.11972949  0.04816925  0.46491768     0.13500
H390        H  0.01588146  0.09653132  0.43159044     0.10000
H391        H  0.10376430  0.11792010  0.38645649     0.11000
H392        H  0.01841859  0.20000485  0.40282037     0.16800
C393        C  0.18081342  0.98987534  0.41452319    -0.01400
C394        C  0.18147080  0.01008507  0.38777369     0.07200
C395        C  0.15326886  0.02689567  0.37938646    -0.07300
C396        C  0.12415878  0.02204479  0.39594860     0.04700
C397        C  0.12309020  0.99966139  0.42112504    -0.14600
C398        C  0.15191864  0.98487198  0.43068455    -0.07900
C399        C  0.21037974  0.01100592  0.36669185     0.05600
C400        C  0.22146238  0.98223641  0.35325487    -0.09000
C401        C  0.24882337  0.98118780  0.33373564     0.00600
C402        C  0.26554341  0.00972382  0.32650995     0.00500
C403        C  0.25435458  0.03857941  0.34020145    -0.12600
C404        C  0.22713452  0.03939991  0.36011269     0.00900
C405        C  0.25864861  0.95035100  0.32150294     0.40200
C406        C  0.21714373  0.06953060  0.37385129     0.36900
C407        C  0.20929919  0.97309123  0.42529279     0.36600
C408        C  0.09577093  0.03894496  0.38533464     0.37300
N409        N  0.26642566  0.92553255  0.31188869    -0.43400
N410        N  0.20909591  0.09367953  0.38484108    -0.43900
N411        N  0.07314916  0.05247224  0.37638190    -0.41300
N412        N  0.23206737  0.95951560  0.43380483    -0.42700
H413        H  0.15165945  0.96816009  0.45020497     0.13500
H414        H  0.15361913  0.04263944  0.35892510     0.10000
H415        H  0.20852158  0.96031373  0.35808513     0.11000
H416        H  0.26666796  0.06077909  0.33514945     0.16800
C417        C  0.00135413  0.42142965  0.44371112    -0.01400
C418        C  0.01509294  0.41510198  0.41352539     0.07200
C419        C  0.02084088  0.44058662  0.39273636    -0.07300
C420        C  0.01302665  0.47190671  0.40129446     0.04700
C421        C  0.99901314  0.47832349  0.43130272    -0.14600
C422        C  0.99379126  0.45301470  0.45252399    -0.07900
C423        C  0.02162769  0.38221748  0.40161252     0.05600
C424        C  0.99563831  0.36157984  0.39717311    -0.09000
C425        C  0.99940611  0.33292546  0.38029409     0.00600
C426        C  0.02983599  0.32463001  0.36684564     0.00500
C427        C  0.05628561  0.34443604  0.37331221    -0.12600
C428        C  0.05242775  0.37290971  0.39052057     0.00900
C429        C  0.97121602  0.31321468  0.37675932     0.40200
C430        C  0.08031484  0.39258527  0.39597470     0.36900
C431        C  0.99483074  0.39597946  0.46590181     0.36600
C432        C  0.02017046  0.49690002  0.37877875     0.37300
N433        N  0.94851217  0.29754998  0.37409448    -0.43400
N434        N  0.10264702  0.40835634  0.40039901    -0.43900
N435        N  0.02617590  0.51631616  0.36014974    -0.41300
N436        N  0.98946333  0.37555281  0.48364984    -0.42700
H437        H  0.98316505  0.45787256  0.47565512     0.13500
H438        H  0.03101022  0.43587416  0.36936637     0.10000
H439        H  0.97190769  0.36859819  0.40569589     0.11000
H440        H  0.07993319  0.33834820  0.36396761     0.16800
C441        C  0.89087143  0.49066100  0.40080943    -0.01400
C442        C  0.88473991  0.50500308  0.37107674     0.07200
C443        C  0.90846316  0.52396087  0.35686046    -0.07300
C444        C  0.93719024  0.53041580  0.37261130     0.04700
C445        C  0.94314254  0.51673696  0.40263738    -0.14600
C446        C  0.92022838  0.49617096  0.41606595    -0.07900
C447        C  0.85290419  0.50332566  0.35543873     0.05600
C448        C  0.83570979  0.53188229  0.35071643    -0.09000
C449        C  0.80714442  0.53244298  0.33321275     0.00600
C450        C  0.79501669  0.50371628  0.32020699     0.00500
C451        C  0.81178366  0.47490893  0.32624206    -0.12600
C452        C  0.84061943  0.47456672  0.34333545     0.00900
C453        C  0.79161832  0.56305196  0.32848290     0.40200
C454        C  0.85806958  0.44476192  0.34656313     0.36900
C455        C  0.86643460  0.47268837  0.41735700     0.36600
C456        C  0.95910885  0.55275705  0.35825260     0.37300
N457        N  0.77941770  0.58770390  0.32467901    -0.43400
N458        N  0.87208327  0.42090772  0.34920796    -0.43900
N459        N  0.97625004  0.57090548  0.34641709    -0.41300
N460        N  0.84679711  0.45838509  0.43067280    -0.42700
H461        H  0.92410327  0.48662263  0.43974278     0.13500
H462        H  0.90375008  0.53511321  0.33403798     0.10000
H463        H  0.84517785  0.55404825  0.36013752     0.11000
H464        H  0.80318954  0.45259203  0.31642886     0.16800
C465        C  0.85010930  0.52947179  0.18027581    -0.01400
C466        C  0.85755191  0.50561385  0.15784457     0.07200
C467        C  0.83536743  0.48124016  0.15184009    -0.07300
C468        C  0.80609787  0.47996517  0.16835166     0.04700
C469        C  0.79883425  0.50339487  0.19145016    -0.14600
C470        C  0.82081598  0.52829727  0.19677645    -0.07900
C471        C  0.88867235  0.50467833  0.14081643     0.05600
C472        C  0.91226882  0.48308683  0.15121598    -0.09000
C473        C  0.93931429  0.47642752  0.13238984     0.00600
C474        C  0.94283209  0.49144419  0.10255176     0.00500
C475        C  0.92048265  0.51511122  0.09350178    -0.12600
C476        C  0.89345047  0.52180012  0.11241455     0.00900
C477        C  0.96257941  0.45352886  0.14396380     0.40200
C478        C  0.86970230  0.54438374  0.10106451     0.36900
C479        C  0.87253551  0.55469050  0.18737524     0.36600
C480        C  0.78371832  0.45492266  0.16056934     0.37300
N481        N  0.98113391  0.43533240  0.15376453    -0.43400
N482        N  0.85063905  0.56246677  0.09197663    -0.43900
N483        N  0.76573985  0.43492361  0.15419771    -0.41300
N484        N  0.89051648  0.57487772  0.19313341    -0.42700
H485        H  0.81559578  0.54633316  0.21465375     0.13500
H486        H  0.84109076  0.46299644  0.13434960     0.10000
H487        H  0.90873545  0.47030428  0.17335672     0.11000
H488        H  0.92270830  0.52655192  0.07052768     0.16800
C489        C  0.11001257  0.55381616  0.47400901    -0.01400
C490        C  0.11653751  0.58514390  0.48442808     0.07200
C491        C  0.09152124  0.60785387  0.48487436    -0.07300
C492        C  0.06044992  0.59999596  0.47504171     0.04700
C493        C  0.05404684  0.56890461  0.46360234    -0.14600
C494        C  0.07891165  0.54592207  0.46390211    -0.07900
C495        C  0.14947894  0.59582199  0.49298820     0.05600
C496        C  0.17362676  0.59517410  0.46958615    -0.09000
C497        C  0.20276019  0.61120308  0.47407386     0.00600
C498        C  0.20785935  0.62893976  0.50233581     0.00500
C499        C  0.18488565  0.62681900  0.52694206    -0.12600
C500        C  0.15592378  0.61045946  0.52249545     0.00900
C501        C  0.22642770  0.60961498  0.44882196     0.40200
C502        C  0.13268321  0.60992868  0.54815621     0.36900
C503        C  0.13463863  0.52929331  0.47404421     0.36600
C504        C  0.03554826  0.62404101  0.47838577     0.37300
N505        N  0.24533114  0.60819498  0.42853930    -0.43400
N506        N  0.11407037  0.60948088  0.56872578    -0.43900
N507        N  0.01587939  0.64360437  0.48114297    -0.41300
N508        N  0.15436811  0.50961149  0.47409878    -0.42700
H509        H  0.07410609  0.52180942  0.45582610     0.13500
H510        H  0.09637074  0.63199901  0.49285487     0.10000
H511        H  0.16902589  0.58354898  0.44700817     0.11000
H512        H  0.18857027  0.63954960  0.54908191     0.16800
C513        C  0.17027542  0.81058737  0.52107519    -0.01400
C514        C  0.16353440  0.82416167  0.49123422     0.07200
C515        C  0.17563837  0.80951182  0.46364089    -0.07300
C516        C  0.19514179  0.78215228  0.46537329     0.04700
C517        C  0.20277566  0.76878098  0.49543428    -0.14600
C518        C  0.18949566  0.78307857  0.52295099    -0.07900
C519        C  0.14453765  0.85408283  0.48819575     0.05600
C520        C  0.15701330  0.88270333  0.50042543    -0.09000
C521        C  0.14055802  0.91178113  0.49629270     0.00600
C522        C  0.11106349  0.91222019  0.47981445     0.00500
C523        C  0.09853828  0.88352032  0.46805542    -0.12600
C524        C  0.11490726  0.85461697  0.47206035     0.00900
C525        C  0.15512584  0.94068433  0.50791151     0.40200
C526        C  0.10075077  0.82587739  0.45939144     0.36900
C527        C  0.15788665  0.82462088  0.55008914     0.36600
C528        C  0.20753687  0.76924882  0.43585928     0.37300
N529        N  0.16714312  0.96375980  0.51712234    -0.43400
N530        N  0.08934916  0.80294726  0.44910669    -0.43900
N531        N  0.21748598  0.75911305  0.41212340    -0.41300
N532        N  0.14800761  0.83599057  0.57329141    -0.42700
H533        H  0.19484614  0.77337751  0.54625253     0.13500
H534        H  0.17042176  0.82002114  0.44063311     0.10000
H535        H  0.18001912  0.88238247  0.51250193     0.11000
H536        H  0.07590371  0.88369810  0.45557354     0.16800
C537        C  0.06351034  0.86434768  0.10103455    -0.01400
C538        C  0.04244918  0.89094603  0.10153456     0.07200
C539        C  0.01225608  0.88802841  0.11631725    -0.07300
C540        C  0.00368989  0.86004392  0.13241963     0.04700
C541        C  0.02554337  0.83390073  0.13362887    -0.14600
C542        C  0.05498920  0.83624083  0.11705087    -0.07900
C543        C  0.05226137  0.92274186  0.08908286     0.05600
C544        C  0.05963512  0.92643011  0.05668364    -0.09000
C545        C  0.06903591  0.95615578  0.04446399     0.00600
C546        C  0.07094826  0.98295035  0.06485426     0.00500
C547        C  0.06323508  0.97918673  0.09718715    -0.12600
C548        C  0.05432457  0.94949059  0.10943133     0.00900
C549        C  0.07791783  0.95797472  0.01129799     0.40200
C550        C  0.04809233  0.94696947  0.14316100     0.36900
C551        C  0.09464201  0.86583319  0.08564536     0.36600
C552        C  0.97330178  0.86000480  0.14927757     0.37300
N553        N  0.08510269  0.95895679  0.98469619    -0.43400
N554        N  0.04310616  0.94494715  0.17018392    -0.43900
N555        N  0.94895234  0.86016739  0.16280188    -0.41300
N556        N  0.11951501  0.86699937  0.07316008    -0.42700
H557        H  0.07192985  0.81639469  0.11743368     0.13500
H558        H  0.99581328  0.90830291  0.11639780     0.10000
H559        H  0.05815862  0.90596650  0.04093061     0.11000
H560        H  0.06388503  0.99965065  0.11300200     0.16800
C561        C  0.03086503  0.64249708  0.10400218    -0.01400
C562        C  0.00089657  0.62885873  0.09647921     0.07200
C563        C  0.97254781  0.64532981  0.10470697    -0.07300
C564        C  0.97358169  0.67417054  0.12171401     0.04700
C565        C  0.00369899  0.68724915  0.13075419    -0.14600
C566        C  0.03205451  0.67143526  0.12069630    -0.07900
C567        C  0.99864961  0.59552294  0.08441784     0.05600
C568        C  0.00978214  0.57090640  0.10413147    -0.09000
C569        C  0.00645697  0.53893553  0.09543776     0.00600
C570        C  0.99176047  0.53090665  0.06628614     0.00500
C571        C  0.98148081  0.55548506  0.04593379    -0.12600
C572        C  0.98443438  0.58770162  0.05498817     0.00900
C573        C  0.01779286  0.51494567  0.11741515     0.40200
C574        C  0.97244754  0.61228003  0.03401959     0.36900
C575        C  0.06075237  0.62656700  0.09577536     0.36600
C576        C  0.94318855  0.68856672  0.13081301     0.37300
N577        N  0.02677740  0.49629604  0.13568752    -0.43400
N578        N  0.96274767  0.63203947  0.01728972    -0.43900
N579        N  0.91874493  0.69992298  0.13812794    -0.41300
N580        N  0.08461776  0.61360989  0.08928264    -0.42700
H581        H  0.05541145  0.68095840  0.12695500     0.13500
H582        H  0.94943271  0.63472421  0.09927751     0.10000
H583        H  0.02043427  0.57674433  0.12692009     0.11000
H584        H  0.96990131  0.54946814  0.02365992     0.16800
C585        C  0.01039812  0.64657486  0.29736596    -0.01400
C586        C  0.00533307  0.66126067  0.32744376     0.07200
C587        C  0.99768072  0.69400473  0.32841863    -0.07300
C588        C  0.99421981  0.71175363  0.30054416     0.04700
C589        C  0.00095686  0.69746345  0.27090319    -0.14600
C590        C  0.00908514  0.66499313  0.26955448    -0.07900
C591        C  0.00733964  0.64318289  0.35804774     0.05600
C592        C  0.03372429  0.62274087  0.36375613    -0.09000
C593        C  0.03404607  0.60203767  0.39000643     0.00600
C594        C  0.00874290  0.60349321  0.41265517     0.00500
C595        C  0.98504526  0.62739440  0.40921254    -0.12600
C596        C  0.98299310  0.64569413  0.38155986     0.00900
C597        C  0.05895241  0.57788256  0.39088794     0.40200
C598        C  0.95380708  0.66403901  0.37660883     0.36900
C599        C  0.01643446  0.61272186  0.29399723     0.36600
C600        C  0.98405110  0.74471378  0.30319043     0.37300
N601        N  0.07921551  0.55873789  0.39074985    -0.43400
N602        N  0.93030611  0.67850924  0.37259258    -0.43900
N603        N  0.97520279  0.77086046  0.30584388    -0.41300
N604        N  0.02136177  0.58564443  0.29083650    -0.42700
H605        H  0.01427026  0.65401112  0.24670334     0.13500
H606        H  0.99432010  0.70588595  0.35112170     0.10000
H607        H  0.05323793  0.62146504  0.34655944     0.11000
H608        H  0.96589147  0.62946560  0.42676625     0.16800
C609        C  0.04472587  0.83376324  0.32269317    -0.01400
C610        C  0.02151737  0.85734350  0.32999286     0.07200
C611        C  0.99626149  0.86318419  0.30873689    -0.07300
C612        C  0.99389011  0.84594024  0.28027559     0.04700
C613        C  0.01761298  0.82267654  0.27243108    -0.14600
C614        C  0.04273071  0.81680657  0.29409336    -0.07900
C615        C  0.02649636  0.87987213  0.35657843     0.05600
C616        C  0.04114463  0.90882189  0.34928175    -0.09000
C617        C  0.04907630  0.93045180  0.37310550     0.00600
C618        C  0.04153261  0.92378326  0.40520752     0.00500
C619        C  0.02604329  0.89485558  0.41252895    -0.12600
C620        C  0.01885672  0.87270954  0.38846265     0.00900
C621        C  0.06516915  0.95906366  0.36316268     0.40200
C622        C  0.00443066  0.84262066  0.39692750     0.36900
C623        C  0.07124086  0.82719236  0.34389481     0.36600
C624        C  0.96733038  0.85333290  0.25940983     0.37300
N625        N  0.07814322  0.98113517  0.35294416    -0.43400
N626        N  0.99291499  0.81843266  0.40366511    -0.43900
N627        N  0.94589994  0.85928392  0.24286931    -0.41300
N628        N  0.09240202  0.82194495  0.36098901    -0.42700
H629        H  0.06071506  0.79858919  0.28892255     0.13500
H630        H  0.97878911  0.88184946  0.31409791     0.10000
H631        H  0.04723758  0.91414841  0.32471770     0.11000
H632        H  0.02048679  0.88909865  0.43706167     0.16800
C633        C  0.07938967  0.02273170  0.91828979    -0.01400
C634        C  0.11038322  0.01135098  0.90994901     0.07200
C635        C  0.13481659  0.01153821  0.93276847    -0.07300
C636        C  0.12898315  0.02251721  0.96354801     0.04700
C637        C  0.09818875  0.03459603  0.97192397    -0.14600
C638        C  0.07348915  0.03414876  0.94920655    -0.07900
C639        C  0.11935853  0.00146570  0.87716593     0.05600
C640        C  0.11896607  0.02464266  0.85320792    -0.09000
C641        C  0.13538765  0.01959154  0.82450800     0.00600
C642        C  0.15290456  0.99074861  0.81946270     0.00500
C643        C  0.15033338  0.96627699  0.84222266    -0.12600
C644        C  0.13384131  0.97146550  0.87095233     0.00900
C645        C  0.13501032  0.04523708  0.80152861     0.40200
C646        C  0.13353931  0.94633841  0.89449403     0.36900
C647        C  0.05328452  0.02233495  0.89576216     0.36600
C648        C  0.15484125  0.01932886  0.98615446     0.37300
N649        N  0.13476586  0.06596060  0.78331428    -0.43400
N650        N  0.13328198  0.92633364  0.91348615    -0.43900
N651        N  0.17616513  0.01621826  0.00352168    -0.41300
N652        N  0.03233421  0.02196006  0.87770182    -0.42700
H653        H  0.04963630  0.04280432  0.95560716     0.13500
H654        H  0.15875888  0.00304087  0.92641459     0.10000
H655        H  0.10773607  0.04768385  0.85781419     0.11000
H656        H  0.16307209  0.94384402  0.83864903     0.16800
C657        C  0.15513936  0.94973108  0.62434055    -0.01400
C658        C  0.12732053  0.96873238  0.61960296     0.07200
C659        C  0.11749846  0.98999693  0.64371944    -0.07300
C660        C  0.13538907  0.99306028  0.67183171     0.04700
C661        C  0.16354729  0.97447583  0.67622051    -0.14600
C662        C  0.17271724  0.95249300  0.65256714    -0.07900
C663        C  0.10934032  0.96767845  0.58898711     0.05600
C664        C  0.09446952  0.93915073  0.57948850    -0.09000
C665        C  0.08090066  0.93615116  0.54909347     0.00600
C666        C  0.08235648  0.96196610  0.52756446     0.00500
C667        C  0.09523040  0.99111181  0.53789820    -0.12600
C668        C  0.10879349  0.99412345  0.56818629     0.00900
C669        C  0.06573997  0.90644802  0.54062187     0.40200
C670        C  0.12396231  0.02391794  0.57650465     0.36900
C671        C  0.16711607  0.92843489  0.59989418     0.36600
C672        C  0.12388881  0.01466115  0.69620891     0.37300
N673        N  0.05350139  0.88259425  0.53403011    -0.43400
N674        N  0.13613383  0.04778835  0.58316289    -0.43900
N675        N  0.11460830  0.03180805  0.71587092    -0.41300
N676        N  0.17682596  0.91144594  0.58029703    -0.42700
H677        H  0.19442953  0.93825686  0.65562686     0.13500
H678        H  0.09597970  0.00444221  0.64040456     0.10000
H679        H  0.09422174  0.91892554  0.59559688     0.11000
H680        H  0.09646054  0.01110525  0.52154848     0.16800
C681        C  0.97462143  0.10999776  0.01140938    -0.01400
C682        C  0.94839085  0.08973849  0.01788540     0.07200
C683        C  0.95421283  0.05925667  0.03063637    -0.07300
C684        C  0.98568409  0.04901139  0.03745314     0.04700
C685        C  0.01179900  0.06962092  0.03166743    -0.14600
C686        C  0.00592939  0.09984425  0.01835559    -0.07900
C687        C  0.91478574  0.10100354  0.01317664     0.05600
C688        C  0.90394683  0.10750631  0.98232151    -0.09000
C689        C  0.87425013  0.12275940  0.97722952     0.00600
C690        C  0.85493665  0.13224672  0.00356899     0.00500
C691        C  0.86500734  0.12344389  0.03433083    -0.12600
C692        C  0.89456090  0.10798997  0.03926844     0.00900
C693        C  0.86489748  0.12887508  0.94474992     0.40200
C694        C  0.90446631  0.10121019  0.07147432     0.36900
C695        C  0.96994094  0.14170055  0.99856850     0.36600
C696        C  0.99022937  0.01796591  0.05167239     0.37300
N697        N  0.85743098  0.13364495  0.91868246    -0.43400
N698        N  0.91244420  0.09564803  0.09723370    -0.43900
N699        N  0.99334350  0.99299424  0.06309461    -0.41300
N700        N  0.96619909  0.16707222  0.98822005    -0.42700
H701        H  0.02596446  0.11567171  0.01352863     0.13500
H702        H  0.93405743  0.04369740  0.03574722     0.10000
H703        H  0.91929350  0.10156391  0.96218702     0.11000
H704        H  0.85050883  0.12990684  0.05489184     0.16800
C705        C  0.92598799  0.36618533  0.99789317    -0.01400
C706        C  0.89705362  0.36008385  0.01444777     0.07200
C707        C  0.88405067  0.38363320  0.03455777    -0.07300
C708        C  0.90005391  0.41253450  0.03925217     0.04700
C709        C  0.92941975  0.41833812  0.02337113    -0.14600
C710        C  0.94153885  0.39540535  0.00201777    -0.07900
C711        C  0.87995017  0.32929383  0.01137813     0.05600
C712        C  0.87629129  0.30982124  0.03830162    -0.09000
C713        C  0.85891717  0.28125415  0.03673885     0.00600
C714        C  0.84495157  0.27171413  0.00760700     0.00500
C715        C  0.84928401  0.29117667  0.98061838    -0.12600
C716        C  0.86623957  0.31981160  0.98235966     0.00900
C717        C  0.85593947  0.26244404  0.06536573     0.40200
C718        C  0.86794057  0.33982082  0.95441924     0.36900
C719        C  0.94127716  0.34208664  0.97827263     0.36600
C720        C  0.88593543  0.43569055  0.06065312     0.37300
N721        N  0.85354133  0.24747652  0.08838420    -0.43400
N722        N  0.86940166  0.35592436  0.93210047    -0.43900
N723        N  0.87418961  0.45408604  0.07773730    -0.41300
N724        N  0.95359357  0.32275170  0.96262487    -0.42700
H725        H  0.96437296  0.39943824  0.99015098     0.13500
H726        H  0.86158699  0.37916019  0.04701849     0.10000
H727        H  0.88685798  0.31715186  0.06068141     0.11000
H728        H  0.83834313  0.28470279  0.95816864     0.16800
C729        C  0.41550046  0.05763609  0.13661144    -0.01400
C730        C  0.42397315  0.03140734  0.11734927     0.07200
C731        C  0.41898850  0.00035519  0.12864916    -0.07300
C732        C  0.40470862  0.99505320  0.15846306     0.04700
C733        C  0.39517674  0.02139853  0.17771295    -0.14600
C734        C  0.40154743  0.05251247  0.16651971    -0.07900
C735        C  0.43632719  0.03595533  0.08457322     0.05600
C736        C  0.46894260  0.04287995  0.07976455    -0.09000
C737        C  0.48131967  0.04760600  0.04905369     0.00600
C738        C  0.46065283  0.04563153  0.02245259     0.00500
C739        C  0.42797618  0.03838510  0.02754962    -0.12600
C740        C  0.41571056  0.03379735  0.05820025     0.00900
C741        C  0.51507944  0.05492721  0.04596587     0.40200
C742        C  0.38178418  0.02738284  0.06213863     0.36900
C743        C  0.41937740  0.09002384  0.12542923     0.36600
C744        C  0.39948895  0.96232736  0.16791258     0.37300
N745        N  0.54233234  0.06036666  0.04431248    -0.43400
N746        N  0.35458180  0.02234387  0.06534745    -0.43900
N747        N  0.39532923  0.93601336  0.17523586    -0.41300
N748        N  0.42231283  0.11594460  0.11633711    -0.42700
H749        H  0.39447137  0.07315583  0.18057819     0.13500
H750        H  0.42556900  0.98016342  0.11369701     0.10000
H751        H  0.48480725  0.04464900  0.10021496     0.11000
H752        H  0.41184126  0.03622692  0.00738157     0.16800
C753        C  0.34608483  0.96676231  0.83892257    -0.01400
C754        C  0.35322173  0.99445421  0.85638138     0.07200
C755        C  0.33164510  0.02046396  0.85574738    -0.07300
C756        C  0.30337312  0.01934928  0.83766821     0.04700
C757        C  0.29619838  0.99159877  0.81993416    -0.14600
C758        C  0.31772391  0.96543352  0.82112516    -0.07900
C759        C  0.38292137  0.99671400  0.87572149     0.05600
C760        C  0.41303925  0.99884553  0.86040868    -0.09000
C761        C  0.44109519  0.00466562  0.87795825     0.00600
C762        C  0.43911827  0.00810784  0.91118376     0.00500
C763        C  0.40922990  0.00450560  0.92653284    -0.12600
C764        C  0.38129290  0.99856202  0.90913568     0.00900
C765        C  0.47136645  0.00821342  0.86138876     0.40200
C766        C  0.35095053  0.99650607  0.92592117     0.36900
C767        C  0.36749169  0.93940591  0.83910321     0.36600
C768        C  0.28205200  0.04676767  0.83824677     0.37300
N769        N  0.49563302  0.01086485  0.84802895    -0.43400
N770        N  0.32658345  0.99507748  0.93930924    -0.43900
N771        N  0.26498219  0.06875839  0.83874612    -0.41300
N772        N  0.38479929  0.91760282  0.83932109    -0.42700
H773        H  0.31288630  0.94406512  0.80739110     0.13500
H774        H  0.33701077  0.04178233  0.86932100     0.10000
H775        H  0.41438452  0.99726195  0.83481518     0.11000
H776        H  0.40753022  0.00798252  0.95191287     0.16800
C777        C  0.41831667  0.14069442  0.00498332    -0.01400
C778        C  0.39338860  0.14886605  0.98398305     0.07200
C779        C  0.38587969  0.12832952  0.95902474    -0.07300
C780        C  0.40382406  0.10052292  0.95350430     0.04700
C781        C  0.43001292  0.09244623  0.97377659    -0.14600
C782        C  0.43603547  0.11259399  0.99999295    -0.07900
C783        C  0.37577159  0.17952843  0.98620243     0.05600
C784        C  0.38064962  0.20249234  0.96237671    -0.09000
C785        C  0.36288846  0.23103784  0.96224617     0.00600
C786        C  0.33948446  0.23655956  0.98608520     0.00500
C787        C  0.33525419  0.21376715  0.01030390    -0.12600
C788        C  0.35316042  0.18541038  0.01053516     0.00900
C789        C  0.37005336  0.25465877  0.93827011     0.40200
C790        C  0.34732704  0.16234350  0.03541114     0.36900
C791        C  0.42759779  0.16185278  0.03042290     0.36600
C792        C  0.39490643  0.08256534  0.92575848     0.37300
N793        N  0.37607673  0.27367751  0.91921689    -0.43400
N794        N  0.34281356  0.14391442  0.05542493    -0.43900
N795        N  0.38715352  0.07026170  0.90240933    -0.41300
N796        N  0.43510194  0.17890141  0.05071741    -0.42700
H797        H  0.45599976  0.10765881  0.01569601     0.13500
H798        H  0.36641532  0.13474996  0.94302200     0.10000
H799        H  0.39839179  0.19801684  0.94384384     0.11000
H800        H  0.31727106  0.21772153  0.02872021     0.16800
C801        C  0.61034815  0.05934812  0.95054223    -0.01400
C802        C  0.61636645  0.08620656  0.96992526     0.07200
C803        C  0.59024047  0.10303837  0.98316057    -0.07300
C804        C  0.55861288  0.09315520  0.97805261     0.04700
C805        C  0.55264767  0.06545712  0.95995246    -0.14600
C806        C  0.57857933  0.04947709  0.94540821    -0.07900
C807        C  0.64926963  0.09910346  0.97467725     0.05600
C808        C  0.66659135  0.10974097  0.94812589    -0.09000
C809        C  0.69555035  0.12627514  0.95158256     0.00600
C810        C  0.70761052  0.13300148  0.98243992     0.00500
C811        C  0.69091430  0.12075595  0.00894373    -0.12600
C812        C  0.66208307  0.10394824  0.00530136     0.00900
C813        C  0.71136304  0.13681834  0.92281521     0.40200
C814        C  0.64582329  0.09223126  0.03336568     0.36900
C815        C  0.63631162  0.04139649  0.93598324     0.36600
C816        C  0.53282548  0.11270279  0.99072248     0.37300
N817        N  0.72387406  0.14514341  0.89963126    -0.43400
N818        N  0.63276887  0.08282596  0.05582877    -0.43900
N819        N  0.51278575  0.12905357  0.00106244    -0.41300
N820        N  0.65712491  0.02701724  0.92427302    -0.42700
H821        H  0.57399338  0.02928779  0.92995869     0.13500
H822        H  0.59458062  0.12450099  0.99693875     0.10000
H823        H  0.65675217  0.10620898  0.92452799     0.11000
H824        H  0.69982573  0.12507115  0.03275074     0.16800
C825        C  0.56208592  0.15269318  0.80965966    -0.01400
C826        C  0.53255426  0.13835449  0.81754045     0.07200
C827        C  0.50588810  0.14284922  0.79774165    -0.07300
C828        C  0.50775404  0.16267594  0.77107870     0.04700
C829        C  0.53674627  0.17906114  0.76425898    -0.14600
C830        C  0.56399421  0.17290289  0.78319245    -0.07900
C831        C  0.52782896  0.12112684  0.84784638     0.05600
C832        C  0.50968196  0.13622532  0.87174059    -0.09000
C833        C  0.50211683  0.12026627  0.89992879     0.00600
C834        C  0.51314307  0.08870158  0.90463581     0.00500
C835        C  0.53225293  0.07395464  0.88113187    -0.12600
C836        C  0.53948520  0.08983853  0.85270398     0.00900
C837        C  0.48280963  0.13688746  0.92333151     0.40200
C838        C  0.55718420  0.07303037  0.82817532     0.36900
C839        C  0.59025266  0.14807722  0.82919861     0.36600
C840        C  0.47949553  0.16555414  0.75130987     0.37300
N841        N  0.46747569  0.15107907  0.94160651    -0.43400
N842        N  0.57125342  0.05952571  0.80844121    -0.43900
N843        N  0.45687905  0.16778576  0.73543572    -0.41300
N844        N  0.61279423  0.14417709  0.84486388    -0.42700
H845        H  0.58653932  0.18484881  0.77813515     0.13500
H846        H  0.48329374  0.13131496  0.80360365     0.10000
H847        H  0.50079140  0.16037389  0.86798338     0.11000
H848        H  0.54003982  0.04937594  0.88426828     0.16800
C849        C  0.42794535  0.02648273  0.37365083    -0.01400
C850        C  0.43983812  0.99609133  0.38231247     0.07200
C851        C  0.43720486  0.97065564  0.36088315    -0.07300
C852        C  0.42076457  0.97438594  0.33213897     0.04700
C853        C  0.40660241  0.00435267  0.32432696    -0.14600
C854        C  0.41180901  0.03045289  0.34475264    -0.07900
C855        C  0.45003199  0.98898463  0.41529847     0.05600
C856        C  0.42693278  0.99214146  0.43947903    -0.09000
C857        C  0.43381625  0.98309464  0.47063451     0.00600
C858        C  0.46448055  0.97027085  0.47808571     0.00500
C859        C  0.48802604  0.96810615  0.45407378    -0.12600
C860        C  0.48088058  0.97686633  0.42270006     0.00900
C861        C  0.40896963  0.98810028  0.49426108     0.40200
C862        C  0.50541255  0.97313122  0.39853528     0.36900
C863        C  0.43058756  0.05355521  0.39478568     0.36600
C864        C  0.41767303  0.94647083  0.31218907     0.37300
N865        N  0.38838151  0.99214036  0.51250254    -0.43400
N866        N  0.52505160  0.97000776  0.37913665    -0.43900
N867        N  0.41516870  0.92391213  0.29647535    -0.41300
N868        N  0.43254260  0.07520161  0.41179507    -0.42700
H869        H  0.40151944  0.05366575  0.33920786     0.13500
H870        H  0.44625952  0.94722379  0.36756296     0.10000
H871        H  0.40309889  0.00126333  0.43380740     0.11000
H872        H  0.51176293  0.95873900  0.45969574     0.16800
C873        C  0.36125508  0.82153709  0.53954625    -0.01400
C874        C  0.36238327  0.84158291  0.51255093     0.07200
C875        C  0.34695143  0.83206075  0.48460970    -0.07300
C876        C  0.33049352  0.80303441  0.48313850     0.04700
C877        C  0.32972579  0.78259384  0.51003374    -0.14600
C878        C  0.34488034  0.79245959  0.53812693    -0.07900
C879        C  0.38199532  0.87104786  0.51220173     0.05600
C880        C  0.40914337  0.87199917  0.49227867    -0.09000
C881        C  0.43186665  0.89632606  0.49525174     0.00600
C882        C  0.42754517  0.92010950  0.51877436     0.00500
C883        C  0.39899813  0.92051935  0.53684716    -0.12600
C884        C  0.37591714  0.89664583  0.53321858     0.00900
C885        C  0.46053266  0.89439037  0.47580428     0.40200
C886        C  0.34654856  0.89851585  0.55168109     0.36900
C887        C  0.37758835  0.82973261  0.56866942     0.36600
C888        C  0.31371877  0.79561324  0.45404701     0.37300
N889        N  0.48320661  0.89248706  0.45977721    -0.43400
N890        N  0.32292450  0.90014142  0.56633775    -0.43900
N891        N  0.30022588  0.78979179  0.43074245    -0.41300
N892        N  0.39052388  0.83636521  0.59206398    -0.42700
H893        H  0.34435743  0.77719569  0.55895649     0.13500
H894        H  0.34779717  0.84743182  0.46385569     0.10000
H895        H  0.41360254  0.85257189  0.47569972     0.11000
H896        H  0.39533875  0.93890466  0.55473820     0.16800
C897        C  0.34864426  0.95621208  0.66612447    -0.01400
C898        C  0.36790344  0.98391022  0.66641508     0.07200
C899        C  0.35690626  0.01117663  0.68243855    -0.07300
C900        C  0.32708680  0.01143022  0.69796138     0.04700
C901        C  0.30724464  0.98392755  0.69718539    -0.14600
C902        C  0.31867931  0.95636475  0.68161442    -0.07900
C903        C  0.39793787  0.98600567  0.64742186     0.05600
C904        C  0.39844753  0.00690158  0.62138191    -0.09000
C905        C  0.42364681  0.00578185  0.59926149     0.00600
C906        C  0.44855501  0.98298613  0.60291356     0.00500
C907        C  0.44972214  0.96449029  0.63075089    -0.12600
C908        C  0.42485127  0.96618298  0.65324887     0.00900
C909        C  0.42199433  0.02678701  0.57213051     0.40200
C910        C  0.42700561  0.94685971  0.68160711     0.36900
C911        C  0.35859238  0.92777721  0.64911591     0.36600
C912        C  0.31826311  0.04001975  0.71533169     0.37300
N913        N  0.42044077  0.04417367  0.55079494    -0.43400
N914        N  0.42887260  0.93150365  0.70441601    -0.43900
N915        N  0.31131688  0.06292926  0.72927660    -0.41300
N916        N  0.36673637  0.90500684  0.63557274    -0.42700
H917        H  0.30398407  0.93505010  0.68109072     0.13500
H918        H  0.37171826  0.03243858  0.68267921     0.10000
H919        H  0.37817408  0.02289242  0.61737040     0.11000
H920        H  0.46920386  0.94738775  0.63400532     0.16800
C921        C  0.49912202  0.13968065  0.60401869    -0.01400
C922        C  0.52427946  0.11722490  0.60058962     0.07200
C923        C  0.55540399  0.12519187  0.61042677    -0.07300
C924        C  0.56143301  0.15453477  0.62525324     0.04700
C925        C  0.53573256  0.17648277  0.63057597    -0.14600
C926        C  0.50501902  0.16900742  0.61868232    -0.07900
C927        C  0.51784628  0.08451176  0.58898846     0.05600
C928        C  0.50939938  0.07992400  0.55709116    -0.09000
C929        C  0.50024114  0.04976406  0.54604209     0.00600
C930        C  0.49937711  0.02361116  0.56726741     0.00500
C931        C  0.50905750  0.02813944  0.59892986    -0.12600
C932        C  0.51792975  0.05828379  0.60997242     0.00900
C933        C  0.49030441  0.04696202  0.51332989     0.40200
C934        C  0.52570891  0.06198761  0.64322023     0.36900
C935        C  0.46658607  0.13228871  0.59457823     0.36600
C936        C  0.59386550  0.16044400  0.63594920     0.37300
N937        N  0.48246621  0.04522526  0.48701551    -0.43400
N938        N  0.53183676  0.06495164  0.66987957    -0.43900
N939        N  0.61992051  0.16503028  0.64443372    -0.41300
N940        N  0.44053738  0.12624731  0.58706899    -0.42700
H941        H  0.48501187  0.18546467  0.62215033     0.13500
H942        H  0.57480524  0.10791579  0.60748649     0.10000
H943        H  0.50921831  0.10018136  0.54100640     0.11000
H944        H  0.50936425  0.00807839  0.61524908     0.16800
C945        C  0.39920675  0.63024016  0.55680078    -0.01400
C946        C  0.41117223  0.60852101  0.53388940     0.07200
C947        C  0.39315894  0.60290750  0.50628220    -0.07300
C948        C  0.36427358  0.61946653  0.50064979     0.04700
C949        C  0.35282395  0.64211189  0.52306985    -0.14600
C950        C  0.37025572  0.64664593  0.55131188    -0.07900
C951        C  0.44313769  0.59268902  0.53755447     0.05600
C952        C  0.44890474  0.57273153  0.56385023    -0.09000
C953        C  0.47930394  0.55871606  0.56858851     0.00600
C954        C  0.50414152  0.56392154  0.54628308     0.00500
C955        C  0.49844576  0.58395973  0.52025129    -0.12600
C956        C  0.46832870  0.59828827  0.51564189     0.00900
C957        C  0.48449244  0.53921778  0.59641755     0.40200
C958        C  0.46434230  0.61974075  0.48902254     0.36900
C959        C  0.41691345  0.63719475  0.58545727     0.36600
C960        C  0.34669780  0.61225175  0.47199696     0.37300
N961        N  0.48865223  0.52349066  0.61867204    -0.43400
N962        N  0.46115865  0.63689517  0.46766938    -0.43900
N963        N  0.33259744  0.60637985  0.44906312    -0.41300
N964        N  0.43111295  0.64266266  0.60842993    -0.42700
H965        H  0.36185870  0.66393957  0.56875321     0.13500
H966        H  0.40198403  0.58580079  0.48885373     0.10000
H967        H  0.42972131  0.56843045  0.58087372     0.11000
H968        H  0.51806613  0.58938369  0.50407151     0.16800
C969        C  0.63153209  0.51950212  0.44069037    -0.01400
C970        C  0.60957889  0.51891630  0.41528700     0.07200
C971        C  0.57720525  0.52689097  0.42081682    -0.07300
C972        C  0.56649268  0.53578252  0.45123223     0.04700
C973        C  0.58869613  0.53735196  0.47661859    -0.14600
C974        C  0.62101024  0.52865778  0.47089778    -0.07900
C975        C  0.62080185  0.51224760  0.38251022     0.05600
C976        C  0.63306996  0.48185441  0.37502741    -0.09000
C977        C  0.64969938  0.47644798  0.34644172     0.00600
C978        C  0.65402720  0.50194099  0.32468279     0.00500
C979        C  0.63911034  0.53157417  0.33128077    -0.12600
C980        C  0.62290791  0.53695807  0.35996380     0.00900
C981        C  0.66370498  0.44516303  0.34139484     0.40200
C982        C  0.61096163  0.56875689  0.36681824     0.36900
C983        C  0.66516587  0.51148516  0.43620363     0.36600
C984        C  0.53277705  0.54336719  0.45502699     0.37300
N985        N  0.67490406  0.42004034  0.33753682    -0.43400
N986        N  0.60147178  0.59422200  0.37244159    -0.43900
N987        N  0.50544684  0.54875611  0.45681231    -0.41300
N988        N  0.69207711  0.50495318  0.43259362    -0.42700
H989        H  0.63819871  0.52871285  0.49024219     0.13500
H990        H  0.56034280  0.52639723  0.40118449     0.10000
H991        H  0.63116278  0.46278469  0.39238752     0.11000
H992        H  0.64162138  0.55132608  0.31479311     0.16800
C993        C  0.58919086  0.41644675  0.56511019    -0.01400
C994        C  0.55797723  0.40465810  0.57105552     0.07200
C995        C  0.53132527  0.42390810  0.56344751    -0.07300
C996        C  0.53524668  0.45566043  0.55384449     0.04700
C997        C  0.56661635  0.46858035  0.55106525    -0.14600
C998        C  0.59300922  0.44751055  0.55357027    -0.07900
C999        C  0.55242955  0.37505370  0.58977706     0.05600
C1000       C  0.53476897  0.37788889  0.61822746    -0.09000
C1001       C  0.53084781  0.35179869  0.63848399     0.00600
C1002       C  0.54551318  0.32229495  0.63083223     0.00500
C1003       C  0.56238278  0.31899300  0.60200482    -0.12600
C1004       C  0.56522453  0.34490369  0.58105238     0.00900
C1005       C  0.51302752  0.35637413  0.66776211     0.40200
C1006       C  0.58062731  0.33980196  0.55059818     0.36900
C1007       C  0.61783311  0.39874730  0.57373790     0.36600
C1008       C  0.50632085  0.47401904  0.54819921     0.37300
N1009       N  0.49869796  0.36000232  0.69117922    -0.43400
N1010       N  0.59299859  0.33571133  0.52619625    -0.43900
N1011       N  0.48253888  0.48760502  0.54303023    -0.41300
N1012       N  0.64088173  0.38474669  0.58072227    -0.42700
H1013       H  0.61698773  0.45570385  0.54833516     0.13500
H1014       H  0.50723157  0.41469095  0.56710205     0.10000
H1015       H  0.52468247  0.40088474  0.62509173     0.11000
H1016       H  0.57299426  0.29607044  0.59572704     0.16800
C1017       C  0.62309997  0.35473808  0.98993829    -0.01400
C1018       C  0.65602824  0.35648834  0.99762091     0.07200
C1019       C  0.67003633  0.38639824  0.00344690    -0.07300
C1020       C  0.65199658  0.41458154  0.99986925     0.04700
C1021       C  0.61970582  0.41270448  0.99020198    -0.14600
C1022       C  0.60514324  0.38279514  0.98692378    -0.07900
C1023       C  0.67665163  0.32760345  0.99720172     0.05600
C1024       C  0.69965705  0.32440079  0.97292878    -0.09000
C1025       C  0.71922184  0.29714791  0.97087749     0.00600
C1026       C  0.71554846  0.27224106  0.99335925     0.00500
C1027       C  0.69240966  0.27565917  0.01769752    -0.12600
C1028       C  0.67312128  0.30310656  0.01983851     0.00900
C1029       C  0.74395812  0.29642804  0.94659511     0.40200
C1030       C  0.65049564  0.30607069  0.04588633     0.36900
C1031       C  0.60782578  0.32471282  0.98263687     0.36600
C1032       C  0.66690226  0.44491483  0.00627063     0.37300
N1033       N  0.76386910  0.29606384  0.92723176    -0.43400
N1034       N  0.63235145  0.30857095  0.06673375    -0.43900
N1035       N  0.67884870  0.46914613  0.01196481    -0.41300
N1036       N  0.59556473  0.30070848  0.97665235    -0.42700
H1037       H  0.57997059  0.38147476  0.98023528     0.13500
H1038       H  0.69526068  0.38769325  0.00990477     0.10000
H1039       H  0.70242545  0.34341559  0.95561422     0.11000
H1040       H  0.68962655  0.25700487  0.03537152     0.16800
C1041       C  0.57174634  0.36341483  0.88097681    -0.01400
C1042       C  0.55113872  0.37132860  0.85559768     0.07200
C1043       C  0.53166135  0.39879248  0.85796117    -0.07300
C1044       C  0.53372341  0.41924311  0.88429753     0.04700
C1045       C  0.55571478  0.41227894  0.90898936    -0.14600
C1046       C  0.57421799  0.38405634  0.90696903    -0.07900
C1047       C  0.54960466  0.35154547  0.82627430     0.05600
C1048       C  0.52027624  0.33748234  0.81812309    -0.09000
C1049       C  0.51753476  0.31856063  0.79081765     0.00600
C1050       C  0.54472162  0.31343623  0.77077114     0.00500
C1051       C  0.57398935  0.32807100  0.77882831    -0.12600
C1052       C  0.57656786  0.34711616  0.80611114     0.00900
C1053       C  0.48667377  0.30402833  0.78488089     0.40200
C1054       C  0.60698115  0.36232649  0.81257877     0.36900
C1055       C  0.59056699  0.33423385  0.88102385     0.36600
C1056       C  0.51429171  0.44796225  0.88422878     0.37300
N1057       N  0.46189264  0.29244339  0.78023810    -0.43400
N1058       N  0.63138380  0.37440083  0.81786048    -0.43900
N1059       N  0.49839765  0.47079030  0.88384763    -0.41300
N1060       N  0.60572471  0.31091201  0.88117862    -0.42700
H1061       H  0.59125668  0.37822945  0.92539816     0.13500
H1062       H  0.51547233  0.40477740  0.83865259     0.10000
H1063       H  0.49947644  0.34096412  0.83349803     0.11000
H1064       H  0.59500879  0.32471185  0.76375028     0.16800
C1065       C  0.60373291  0.44260736  0.08163033    -0.01400
C1066       C  0.60572061  0.47373618  0.09431231     0.07200
C1067       C  0.59393382  0.49938972  0.07642044    -0.07300
C1068       C  0.58305924  0.49509513  0.04529748     0.04700
C1069       C  0.58352125  0.46418114  0.03129211    -0.14600
C1070       C  0.59130756  0.43806518  0.05104507    -0.07900
C1071       C  0.62280343  0.48088838  0.12448149     0.05600
C1072       C  0.64921568  0.50168598  0.12323619    -0.09000
C1073       C  0.66698565  0.50863441  0.15050734     0.00600
C1074       C  0.65881074  0.49409993  0.17964511     0.00500
C1075       C  0.63193683  0.47395664  0.18119380    -0.12600
C1076       C  0.61346763  0.46785732  0.15404741     0.00900
C1077       C  0.69459342  0.52929270  0.14759089     0.40200
C1078       C  0.58472640  0.44888128  0.15724285     0.36900
C1079       C  0.61679957  0.41523106  0.09817386     0.36600
C1080       C  0.57239500  0.52347004  0.02894890     0.37300
N1081       N  0.71669298  0.54586811  0.14535003    -0.43400
N1082       N  0.56163282  0.43373758  0.15977190    -0.43900
N1083       N  0.56318609  0.54683167  0.01729947    -0.41300
N1084       N  0.62738385  0.39323350  0.11124796    -0.42700
H1085       H  0.58919268  0.41391280  0.04226866     0.13500
H1086       H  0.59462191  0.52329613  0.08642853     0.10000
H1087       H  0.65638167  0.51204473  0.10066301     0.11000
H1088       H  0.62539721  0.46299938  0.20366240     0.16800
C1089       C  0.38964298  0.40271052  0.95082251    -0.01400
C1090       C  0.41177963  0.40456080  0.97590947     0.07200
C1091       C  0.40359378  0.39237675  0.00583627    -0.07300
C1092       C  0.37411911  0.37704066  0.01076046     0.04700
C1093       C  0.35217089  0.37383877  0.98519647    -0.14600
C1094       C  0.36009432  0.38762573  0.95562690    -0.07900
C1095       C  0.44462953  0.41676094  0.97059728     0.05600
C1096       C  0.44983944  0.44969531  0.97061328    -0.09000
C1097       C  0.48058316  0.46209263  0.96488178     0.00600
C1098       C  0.50697646  0.44106776  0.95890913     0.00500
C1099       C  0.50135608  0.40788221  0.95987759    -0.12600
C1100       C  0.47054277  0.39572913  0.96497531     0.00900
C1101       C  0.48342074  0.49638842  0.96545038     0.40200
C1102       C  0.46588338  0.36157166  0.96374443     0.36900
C1103       C  0.39755454  0.41464001  0.91953815     0.36600
C1104       C  0.36821393  0.36339160  0.04176101     0.37300
N1105       N  0.48449555  0.52398005  0.96689284    -0.43400
N1106       N  0.46198842  0.33424154  0.96253342    -0.43900
N1107       N  0.36364816  0.35242946  0.06662899    -0.41300
N1108       N  0.40411705  0.42414801  0.89451213    -0.42700
H1109       H  0.34371052  0.38561381  0.93572547     0.13500
H1110       H  0.42084424  0.39384605  0.02508379     0.10000
H1111       H  0.42968041  0.46577450  0.97501990     0.11000
H1112       H  0.52114019  0.39110612  0.95703380     0.16800
C1113       C  0.89803934  0.87868003  0.44908897    -0.01400
C1114       C  0.90807606  0.90090677  0.47226264     0.07200
C1115       C  0.88942360  0.90451056  0.50009200    -0.07300
C1116       C  0.86211608  0.88562165  0.50564166     0.04700
C1117       C  0.85248862  0.86294258  0.48269177    -0.14600
C1118       C  0.87050877  0.86024206  0.45437921    -0.07900
C1119       C  0.93872562  0.91924340  0.46863299     0.05600
C1120       C  0.94414281  0.93767788  0.44113428    -0.09000
C1121       C  0.97394465  0.95246438  0.43570930     0.00600
C1122       C  0.99854883  0.95005105  0.45866258     0.00500
C1123       C  0.99250709  0.93320691  0.48684863    -0.12600
C1124       C  0.96331729  0.91735344  0.49172792     0.00900
C1125       C  0.97889506  0.96959729  0.40631982     0.40200
C1126       C  0.96018284  0.89744430  0.51960101     0.36900
C1127       C  0.91605740  0.87341582  0.42006463     0.36600
C1128       C  0.84424740  0.89049553  0.53479669     0.37300
N1129       N  0.98296285  0.98338098  0.38280526    -0.43400
N1130       N  0.95766683  0.88139132  0.54186364    -0.43900
N1131       N  0.83000836  0.89443234  0.55821964    -0.41300
N1132       N  0.93020911  0.86927322  0.39663006    -0.42700
H1133       H  0.86354501  0.84298289  0.43646516     0.13500
H1134       H  0.89649532  0.92193591  0.51779447     0.10000
H1135       H  0.92533666  0.93978425  0.42342625     0.11000
H1136       H  0.01144294  0.93077666  0.50434630     0.16800
C1137       C  0.65858598  0.89931534  0.47486245    -0.01400
C1138       C  0.65093942  0.91258868  0.50486891     0.07200
C1139       C  0.67391400  0.91121616  0.52909884    -0.07300
C1140       C  0.70272786  0.89413896  0.52496349     0.04700
C1141       C  0.70855727  0.87709703  0.49629104    -0.14600
C1142       C  0.68710834  0.88155971  0.47083430    -0.07900
C1143       C  0.61744796  0.92233563  0.51326565     0.05600
C1144       C  0.59341866  0.89912225  0.51088925    -0.09000
C1145       C  0.56188909  0.90543172  0.52080256     0.00600
C1146       C  0.55370736  0.93569865  0.53349338     0.00500
C1147       C  0.57766553  0.95912620  0.53576359    -0.12600
C1148       C  0.60948641  0.95255831  0.52615244     0.00900
C1149       C  0.53854524  0.88040938  0.51674372     0.40200
C1150       C  0.63341199  0.97716354  0.52951901     0.36900
C1151       C  0.63689361  0.90266731  0.44828346     0.36600
C1152       C  0.72519693  0.89379992  0.55109078     0.37300
N1153       N  0.52059263  0.85969770  0.51324285    -0.43400
N1154       N  0.65260765  0.99686749  0.53239426    -0.43900
N1155       N  0.74316366  0.89364835  0.57206022    -0.41300
N1156       N  0.61955105  0.90555464  0.42698251    -0.42700
H1157       H  0.69155687  0.86964128  0.44832001     0.13500
H1158       H  0.66845773  0.92180014  0.55207337     0.10000
H1159       H  0.59949957  0.87562071  0.50162232     0.11000
H1160       H  0.57154278  0.98249275  0.54530403     0.16800
C1161       C  0.67958792  0.68900158  0.47121736    -0.01400
C1162       C  0.66348207  0.68067327  0.49944320     0.07200
C1163       C  0.66564815  0.70065294  0.52612074    -0.07300
C1164       C  0.68475134  0.72806245  0.52552968     0.04700
C1165       C  0.70185987  0.73610497  0.49750557    -0.14600
C1166       C  0.69818131  0.71672987  0.47030554    -0.07900
C1167       C  0.64827326  0.64911085  0.50344229     0.05600
C1168       C  0.66364561  0.62718140  0.52332641    -0.09000
C1169       C  0.64928132  0.59821787  0.53117817     0.00600
C1170       C  0.61897732  0.59020267  0.51819922     0.00500
C1171       C  0.60443015  0.61171792  0.49670830    -0.12600
C1172       C  0.61861054  0.64116853  0.48959337     0.00900
C1173       C  0.66642723  0.57864968  0.55359953     0.40200
C1174       C  0.60141353  0.66359733  0.46976706     0.36900
C1175       C  0.67937154  0.66822270  0.44376900     0.36600
C1176       C  0.68689737  0.74670330  0.55433029     0.37300
N1177       N  0.68182175  0.56529414  0.57224668    -0.43400
N1178       N  0.58752101  0.68162477  0.45399673    -0.43900
N1179       N  0.68858099  0.76137869  0.57759515    -0.41300
N1180       N  0.67930486  0.65143699  0.42188280    -0.42700
H1181       H  0.71134972  0.72214684  0.44866611     0.13500
H1182       H  0.65339924  0.69398704  0.54795846     0.10000
H1183       H  0.68667097  0.63336627  0.53375142     0.11000
H1184       H  0.58089550  0.60646329  0.48698276     0.16800
C1185       C  0.87960589  0.69236087  0.47724478    -0.01400
C1186       C  0.86776519  0.66482961  0.49262373     0.07200
C1187       C  0.83784104  0.66615318  0.50812675    -0.07300
C1188       C  0.81968393  0.69453573  0.50844998     0.04700
C1189       C  0.83134421  0.72194019  0.49256506    -0.14600
C1190       C  0.86118683  0.72051847  0.47697565    -0.07900
C1191       C  0.88630124  0.63443849  0.49186385     0.05600
C1192       C  0.91336803  0.63120289  0.51138750    -0.09000
C1193       C  0.93531051  0.60599905  0.50689278     0.00600
C1194       C  0.93014081  0.58344110  0.48235879     0.00500
C1195       C  0.90146333  0.58526510  0.46478508    -0.12600
C1196       C  0.87965182  0.61055855  0.46926591     0.00900
C1197       C  0.96403604  0.60578909  0.52607455     0.40200
C1198       C  0.85182980  0.61278856  0.44888558     0.36900
C1199       C  0.91063633  0.69219234  0.46159934     0.36600
C1200       C  0.78869822  0.69461614  0.52426888     0.37300
N1201       N  0.98678053  0.60614151  0.54188486    -0.43400
N1202       N  0.82953544  0.61459048  0.43253695    -0.43900
N1203       N  0.76388153  0.69448710  0.53693818    -0.41300
N1204       N  0.93563764  0.69208389  0.44931692    -0.42700
H1205       H  0.87028938  0.74155953  0.46496160     0.13500
H1206       H  0.82866815  0.64498187  0.51985469     0.10000
H1207       H  0.91833868  0.64952515  0.52892904     0.11000
H1208       H  0.89706254  0.56793716  0.44612074     0.16800
C1209       C  0.47385145  0.91912927  0.93312501    -0.01400
C1210       C  0.50604948  0.90904029  0.92947192     0.07200
C1211       C  0.53066030  0.92866899  0.94055132    -0.07300
C1212       C  0.52389052  0.95939464  0.95213585     0.04700
C1213       C  0.49194223  0.97177485  0.95086694    -0.14600
C1214       C  0.46711594  0.95000044  0.94429496    -0.07900
C1215       C  0.51470386  0.88021725  0.91071738     0.05600
C1216       C  0.52663647  0.88474145  0.87981448    -0.09000
C1217       C  0.53307137  0.85867916  0.85993132     0.00600
C1218       C  0.52774463  0.82737584  0.87103475     0.00500
C1219       C  0.51629393  0.82270104  0.90214454    -0.12600
C1220       C  0.51003272  0.84891560  0.92216097     0.00900
C1221       C  0.54314840  0.86471790  0.82755955     0.40200
C1222       C  0.49895197  0.84328713  0.95423468     0.36900
C1223       C  0.44745346  0.89898403  0.92372142     0.36600
C1224       C  0.55032460  0.97626758  0.96626196     0.37300
N1225       N  0.55099139  0.86959960  0.80157550    -0.43400
N1226       N  0.49017144  0.83884315  0.98000528    -0.43900
N1227       N  0.57199206  0.98795233  0.97886885    -0.41300
N1228       N  0.42630895  0.88278211  0.91625218    -0.42700
H1229       H  0.44219520  0.95715728  0.94697140     0.13500
H1230       H  0.55542681  0.92018406  0.93937020     0.10000
H1231       H  0.52999121  0.90882158  0.87088792     0.11000
H1232       H  0.51203785  0.79863170  0.91066339     0.16800
C1233       C  0.57890746  0.63507639  0.88286046    -0.01400
C1234       C  0.55481939  0.62439038  0.90397820     0.07200
C1235       C  0.52672609  0.64287301  0.90808083    -0.07300
C1236       C  0.52200945  0.67113030  0.89070110     0.04700
C1237       C  0.54613501  0.68165805  0.86934612    -0.14600
C1238       C  0.57464432  0.66361308  0.86623500    -0.07900
C1239       C  0.55816402  0.59301316  0.92018891     0.05600
C1240       C  0.58543341  0.58709870  0.93910531    -0.09000
C1241       C  0.59243333  0.55628416  0.95013919     0.00600
C1242       C  0.57128244  0.53110838  0.94317290     0.00500
C1243       C  0.54358201  0.53719686  0.92529038    -0.12600
C1244       C  0.53670364  0.56780795  0.91391470     0.00900
C1245       C  0.62145696  0.55105902  0.96824857     0.40200
C1246       C  0.50845010  0.57220294  0.89443678     0.36900
C1247       C  0.60738009  0.61611862  0.87639228     0.36600
C1248       C  0.49231144  0.68872656  0.89530305     0.37300
N1249       N  0.64470657  0.54697324  0.98282769    -0.43400
N1250       N  0.48567243  0.57562152  0.87899756    -0.43900
N1251       N  0.46843624  0.70274228  0.89893985    -0.41300
N1252       N  0.63000495  0.60055624  0.87153688    -0.42700
H1253       H  0.59316401  0.67099879  0.84955372     0.13500
H1254       H  0.50817378  0.63483025  0.92440522     0.10000
H1255       H  0.60197001  0.60638940  0.94412271     0.11000
H1256       H  0.52797218  0.51758454  0.91899781     0.16800
C1257       C  0.55319770  0.83435534  0.68079934    -0.01400
C1258       C  0.52723744  0.85539406  0.67547953     0.07200
C1259       C  0.50331924  0.85921282  0.69889412    -0.07300
C1260       C  0.50469640  0.84177670  0.72731140     0.04700
C1261       C  0.53058898  0.82037208  0.73255835    -0.14600
C1262       C  0.55490460  0.81736007  0.70932073    -0.07900
C1263       C  0.52360654  0.87210771  0.64478273     0.05600
C1264       C  0.50250928  0.85940219  0.62229294    -0.09000
C1265       C  0.49688370  0.87522890  0.59358920     0.00600
C1266       C  0.51275030  0.90422888  0.58698227     0.00500
C1267       C  0.53506151  0.91612452  0.60898850    -0.12600
C1268       C  0.54049960  0.90033581  0.63783556     0.00900
C1269       C  0.47415282  0.86153486  0.57168502     0.40200
C1270       C  0.56213530  0.91432280  0.66065269     0.36900
C1271       C  0.57740478  0.82867233  0.65663166     0.36600
C1272       C  0.47951376  0.84647934  0.75068975     0.37300
N1273       N  0.45605926  0.85021210  0.55420693    -0.43400
N1274       N  0.57940808  0.92554847  0.67900333    -0.43900
N1275       N  0.45934021  0.85021275  0.76944821    -0.41300
N1276       N  0.59660813  0.82400661  0.63710446    -0.42700
H1277       H  0.57462929  0.80059364  0.71282050     0.13500
H1278       H  0.48329953  0.87545192  0.69468035     0.10000
H1279       H  0.48986467  0.83740934  0.62754243     0.11000
H1280       H  0.54659406  0.93889545  0.60462088     0.16800
C1281       C  0.51387994  0.65347523  0.69668705    -0.01400
C1282       C  0.54110878  0.65110296  0.67678166     0.07200
C1283       C  0.56883978  0.66839744  0.68418515    -0.07300
C1284       C  0.56988898  0.68797467  0.71118805     0.04700
C1285       C  0.54253021  0.69052784  0.73141021    -0.14600
C1286       C  0.51476109  0.67301365  0.72367053    -0.07900
C1287       C  0.54206069  0.62913493  0.64921818     0.05600
C1288       C  0.54124649  0.64159102  0.61821990    -0.09000
C1289       C  0.54503386  0.62140919  0.59177594     0.00600
C1290       C  0.54991406  0.58838207  0.59648350     0.00500
C1291       C  0.54995664  0.57606699  0.62738336    -0.12600
C1292       C  0.54589603  0.59599920  0.65369221     0.00900
C1293       C  0.54474595  0.63523755  0.56036365     0.40200
C1294       C  0.54700733  0.58208457  0.68508859     0.36900
C1295       C  0.48470646  0.63628690  0.68967945     0.36600
C1296       C  0.59916773  0.70549124  0.71683242     0.37300
N1297       N  0.54421143  0.64667852  0.53532109    -0.43400
N1298       N  0.54781525  0.57091849  0.71024474    -0.43900
N1299       N  0.62274359  0.71941991  0.72115382    -0.41300
N1300       N  0.46133867  0.62250245  0.68404901    -0.42700
H1301       H  0.49348228  0.67462389  0.73865282     0.13500
H1302       H  0.58987669  0.66633190  0.66888854     0.10000
H1303       H  0.53828073  0.66712830  0.61477040     0.11000
H1304       H  0.55382070  0.55076537  0.63093893     0.16800
C1305       C  0.92198892  0.51082912  0.86910068    -0.01400
C1306       C  0.93063205  0.48081757  0.88193016     0.07200
C1307       C  0.92608764  0.45339225  0.86340124    -0.07300
C1308       C  0.91171948  0.45519359  0.83329517     0.04700
C1309       C  0.90083673  0.48509987  0.82116327    -0.14600
C1310       C  0.90723129  0.51275881  0.83912601    -0.07900
C1311       C  0.94180616  0.47725617  0.91551049     0.05600
C1312       C  0.92088709  0.48661091  0.94019778    -0.09000
C1313       C  0.92947610  0.48257317  0.97212555     0.00600
C1314       C  0.95959070  0.46888505  0.97999391     0.00500
C1315       C  0.98084223  0.45997357  0.95544239    -0.12600
C1316       C  0.97204476  0.46369317  0.92337340     0.00900
C1317       C  0.90719992  0.49334388  0.99641023     0.40200
C1318       C  0.99443823  0.45358584  0.89896083     0.36900
C1319       C  0.92790764  0.53997369  0.88644756     0.36600
C1320       C  0.90808082  0.42563972  0.81595741     0.37300
N1321       N  0.88929022  0.50208140  0.01576696    -0.43400
N1322       N  0.01231457  0.44537001  0.87934895    -0.43900
N1323       N  0.90526513  0.40189018  0.80215305    -0.41300
N1324       N  0.93282089  0.56325123  0.90043070    -0.42700
H1325       H  0.89968734  0.53596690  0.83032501     0.13500
H1326       H  0.93285977  0.43024262  0.87297759     0.10000
H1327       H  0.89754036  0.49683232  0.93446017     0.11000
H1328       H  0.00400398  0.44944020  0.96135051     0.16800
C1329       C  0.93382972  0.52531423  0.63640091    -0.01400
C1330       C  0.93177577  0.50227814  0.61200117     0.07200
C1331       C  0.91545317  0.47362934  0.61801281    -0.07300
C1332       C  0.89954379  0.46853392  0.64704329     0.04700
C1333       C  0.90060989  0.49213295  0.67119349    -0.14600
C1334       C  0.91862954  0.51995694  0.66566400    -0.07900
C1335       C  0.94394518  0.50909837  0.57936766     0.05600
C1336       C  0.97659399  0.51661226  0.57475457    -0.09000
C1337       C  0.98790755  0.52724990  0.54514181     0.00600
C1338       C  0.96635626  0.53006032  0.51939854     0.00500
C1339       C  0.93423041  0.52052547  0.52359638    -0.12600
C1340       C  0.92278733  0.51063392  0.55321998     0.00900
C1341       C  0.02109224  0.53704845  0.54256534     0.40200
C1342       C  0.88883375  0.50389064  0.55638213     0.36900
C1343       C  0.94940718  0.55565726  0.63122815     0.36600
C1344       C  0.88013824  0.44018167  0.65008694     0.37300
N1345       N  0.04769167  0.54499227  0.54077026    -0.43400
N1346       N  0.86160228  0.49855608  0.55872217    -0.43900
N1347       N  0.86439129  0.41757211  0.65235522    -0.41300
N1348       N  0.96189113  0.57992188  0.62689154    -0.42700
H1349       H  0.91963382  0.53838526  0.68377527     0.13500
H1350       H  0.91382101  0.45583304  0.59932878     0.10000
H1351       H  0.99302526  0.51526124  0.59469511     0.11000
H1352       H  0.91769598  0.52146436  0.50370902     0.16800
C1353       C  0.71803314  0.52414357  0.83462678    -0.01400
C1354       C  0.70992226  0.49835279  0.85452689     0.07200
C1355       C  0.72907622  0.47053487  0.85381165    -0.07300
C1356       C  0.75592559  0.46808909  0.83365783     0.04700
C1357       C  0.76368834  0.49369703  0.81318916    -0.14600
C1358       C  0.74463855  0.52163350  0.81424843    -0.07900
C1359       C  0.68156115  0.49942386  0.87617410     0.05600
C1360       C  0.65040078  0.50186211  0.86333363    -0.09000
C1361       C  0.62307467  0.49792932  0.88269739     0.00600
C1362       C  0.62692646  0.49155770  0.91533096     0.00500
C1363       C  0.65791089  0.49086205  0.92830924    -0.12600
C1364       C  0.68512926  0.49496761  0.90920098     0.00900
C1365       C  0.59161031  0.49884670  0.86831942     0.40200
C1366       C  0.71649157  0.49367735  0.92391728     0.36900
C1367       C  0.69996865  0.55370105  0.83499280     0.36600
C1368       C  0.77556858  0.43952895  0.83537290     0.37300
N1369       N  0.56647470  0.49981814  0.85656075    -0.43400
N1370       N  0.74160987  0.49259977  0.93572299    -0.43900
N1371       N  0.79142106  0.41671822  0.83688232    -0.41300
N1372       N  0.68591905  0.57766478  0.83486390    -0.42700
H1373       H  0.75027203  0.54158949  0.79879167     0.13500
H1374       H  0.72300601  0.45062126  0.86916496     0.10000
H1375       H  0.64747693  0.50527280  0.83794975     0.11000
H1376       H  0.66084029  0.48588816  0.95334344     0.16800
C1377       C  0.67959662  0.49494766  0.58683275    -0.01400
C1378       C  0.67838090  0.49092345  0.62007263     0.07200
C1379       C  0.64816734  0.49027442  0.63537042    -0.07300
C1380       C  0.61974338  0.49653031  0.61839949     0.04700
C1381       C  0.62159632  0.50463676  0.58598519    -0.14600
C1382       C  0.65136889  0.50225781  0.57021108    -0.07900
C1383       C  0.70828688  0.49013881  0.63947154     0.05600
C1384       C  0.72814566  0.51721082  0.63993983    -0.09000
C1385       C  0.75551249  0.51844052  0.65939216     0.00600
C1386       C  0.76328600  0.49222322  0.67922691     0.00500
C1387       C  0.74381100  0.46476934  0.67781526    -0.12600
C1388       C  0.71663789  0.46355339  0.65822793     0.00900
C1389       C  0.77541473  0.54655731  0.65783371     0.40200
C1390       C  0.69794020  0.43460096  0.65737572     0.36900
C1391       C  0.70968397  0.49315684  0.56950599     0.36600
C1392       C  0.58914660  0.49415888  0.63453918     0.37300
N1393       N  0.79138073  0.56907911  0.65636003    -0.43400
N1394       N  0.68299074  0.41137704  0.65656532    -0.43900
N1395       N  0.56468938  0.49143436  0.64754792    -0.41300
N1396       N  0.73374627  0.49176417  0.55554245    -0.42700
H1397       H  0.65272029  0.50745620  0.54497320     0.13500
H1398       H  0.64689694  0.48598250  0.66077095     0.10000
H1399       H  0.72198820  0.53765947  0.62527437     0.11000
H1400       H  0.74943271  0.44420928  0.69251704     0.16800
loop_ 
_geom_bond_atom_site_label_1 
_geom_bond_atom_site_label_2 
_geom_bond_distance 
_geom_bond_site_symmetry_2 
_ccdc_geom_bond_type 
O1           Cu9   2.041       .  S
O1           C11   1.283       .  A
O2           Cu9   2.037       .  S
O2           C12   1.282       .  A
O3           Cu9   1.988       .  S
O3           C13   1.275       .  A
O4           Cu9   1.995       .  S
O4           C14   1.276       .  A
O5          Cu10   2.021       .  S
O5           C14   1.280       .  A
O6          Cu10   2.016       .  S
O6           C13   1.279       .  A
O7          Cu10   1.992       .  S
O7           C12   1.275       .  A
O8          Cu10   1.999       .  S
O8           C11   1.276       .  A
Cu9         Cu10   2.365       .  S
C11        C1309   1.502       .  S
C12        C1386   1.492       .  S
C13        C1357   1.483       .  S
C14        C1333   1.488       .  S
O15         Cu23   2.013       .  S
O15          C25   1.279       .  A
O16         Cu23   2.017       .  S
O16          C26   1.279       .  A
O17         Cu23   1.996       .  S
O17          C27   1.277       .  A
O18         Cu23   1.987       .  S
O18          C28   1.275       .  A
O19         Cu24   2.015       .  S
O19          C28   1.279       .  A
O20         Cu24   2.012       .  S
O20          C27   1.278       .  A
O21         Cu24   2.001       .  S
O21          C26   1.275       .  A
O22         Cu24   2.000       .  S
O22          C25   1.278       .  A
Cu23        Cu24   2.372       .  S
C25        C1285   1.489       .  S
C26        C1218   1.471       .  S
C27        C1237   1.482       .  S
C28        C1261   1.477       .  S
O29         Cu37   2.020       .  S
O29          C39   1.280       .  A
O30         Cu37   2.033       .  S
O30          C40   1.281       .  A
O31         Cu37   1.990       .  S
O31          C41   1.275       .  A
O32         Cu37   1.994       .  S
O32          C42   1.274       .  A
O33         Cu38   2.025       .  S
O33          C42   1.280       .  A
O34         Cu38   2.029       .  S
O34          C41   1.281       .  A
O35         Cu38   1.994       .  S
O35          C40   1.276       .  A
O36         Cu38   1.990       .  S
O36          C39   1.275       .  A
Cu37        Cu38   2.369       .  S
C39        C1165   1.486       .  S
C40        C1117   1.490       .  S
C41        C1141   1.491       .  S
C42        C1189   1.473       .  S
C43          H44   1.112       .  S
C43          C49   1.529       .  S
C43          C48   1.530       .  S
C43          C47   1.517       .  S
C45          H46   1.102       .  S
C45          C51   1.550       .  S
C45          C50   1.547       .  S
C45          C52   1.545       .  S
C47          C50   1.365       .  D
C47        C1362   1.478       .  S
C48          C51   1.383       .  D
C48        C1045   1.496       .  S
C49          C52   1.378       .  D
C49        C1021   1.473       .  S
C50        C1242   1.475       .  S
C51        C1098   1.501       .  S
C52        C1069   1.508   1_556  S
C53          H54   1.107       .  S
C53          C59   1.546       .  S
C53          C58   1.539       .  S
C53          C57   1.544       .  S
C55          H56   1.109       .  S
C55          C61   1.533       .  S
C55          C60   1.536       .  S
C55          C62   1.522       .  S
C57          C60   1.382       .  D
C57         C997   1.501       .  S
C58          C61   1.378       .  D
C58         C973   1.490       .  S
C59          C62   1.365       .  D
C59         C954   1.480       .  S
C60        C1381   1.485       .  S
C61        C1170   1.494       .  S
C62        C1290   1.478       .  S
C63          H64   1.111       .  S
C63          C69   1.526       .  S
C63          C68   1.525       .  S
C63          C67   1.525       .  S
C65          H66   1.110       .  S
C65          C71   1.541       .  S
C65          C70   1.542       .  S
C65          C72   1.541       .  S
C67          C70   1.374       .  D
C67         C906   1.481       .  S
C68          C71   1.374       .  D
C68        C1266   1.482       .  S
C69          C72   1.373       .  D
C69         C882   1.484       .  S
C70         C930   1.487   1_565  S
C71        C1146   1.485       .  S
C72         C858   1.484       .  S
O73         Cu81   1.996       .  S
O73          C83   1.276       .  A
O74         Cu81   1.994       .  S
O74          C84   1.276       .  A
O75         Cu81   1.995       .  S
O75          C85   1.276       .  A
O76         Cu81   1.995       .  S
O76          C86   1.277       .  A
O77         Cu82   2.009       .  S
O77          C86   1.278       .  A
O78         Cu82   2.020       .  S
O78          C85   1.280       .  A
O79         Cu82   2.008       .  S
O79          C84   1.278       .  A
O80         Cu82   2.012       .  S
O80          C83   1.278       .  A
Cu81        Cu82   2.368       .  S
C83        C1002   1.471       .  S
C84         C829   1.485       .  S
C85        C1050   1.490       .  S
C86         C925   1.489       .  S
C87          H88   1.104       .  S
C87          C93   1.532       .  S
C87          C92   1.534       .  S
C87          C91   1.518       .  S
C89          H90   1.105       .  S
C89          C95   1.547       .  S
C89          C94   1.548       .  S
C89          C96   1.547       .  S
C91          C94   1.361       .  D
C91         C834   1.480       .  S
C92          C95   1.384       .  D
C92         C781   1.505       .  S
C93          C96   1.384       .  D
C93         C762   1.479       .  S
C94         C805   1.481       .  S
C95         C738   1.495   1_556  S
C96        C1213   1.510   1_545  S
O97        Cu105   2.006       .  S
O97         C107   1.278       .  A
O98        Cu105   2.008       .  S
O98         C108   1.278   1_556  A
O99        Cu105   1.994       .  S
O99         C109   1.275       .  A
O100       Cu105   1.988       .  S
O100        C110   1.276   1_556  A
O101       Cu106   2.018       .  S
O101        C110   1.279       .  A
O102       Cu106   2.020       .  S
O102        C109   1.280   1_554  A
O103       Cu106   2.001       .  S
O103        C108   1.278       .  A
O104       Cu106   1.993       .  S
O104        C107   1.276   1_554  A
Cu105      Cu106   2.366   1_556  S
C107       C1026   1.479       .  S
C108        C690   1.492       .  S
C109        C810   1.493       .  S
C110        C714   1.486       .  S
O111       Cu119   2.022       .  S
O111        C121   1.280       .  A
O112       Cu119   2.033       .  S
O112        C122   1.282       .  A
O113       Cu119   2.010       .  S
O113        C123   1.277       .  A
O114       Cu119   1.996       .  S
O114        C124   1.277       .  A
O115       Cu120   2.019       .  S
O115        C124   1.280   1_545  A
O116       Cu120   2.020       .  S
O116        C123   1.279   1_545  A
O117       Cu120   1.981       .  S
O117        C122   1.274   1_545  A
O118       Cu120   1.981       .  S
O118        C121   1.274   1_545  A
Cu119      Cu120   2.368   1_565  S
C121        C901   1.483       .  S
C122        C642   1.488       .  S
C123        C661   1.482       .  S
C124        C757   1.485       .  S
O125       Cu133   2.011       .  S
O125        C135   1.279       .  A
O126       Cu133   2.012       .  S
O126        C136   1.279       .  A
O127       Cu133   1.996       .  S
O127        C137   1.275       .  A
O128       Cu133   2.006       .  S
O128        C138   1.278       .  A
O129       Cu134   2.015       .  S
O129        C138   1.279   1_655  A
O130       Cu134   2.011       .  S
O130        C137   1.277   1_655  A
O131       Cu134   2.001       .  S
O131        C136   1.277   1_655  A
O132       Cu134   2.013       .  S
O132        C135   1.278   1_655  A
Cu133      Cu134   2.368   1_455  S
C135        C565   1.497       .  S
C136        C613   1.486       .  S
C137        C589   1.467       .  S
C138        C541   1.489       .  S
O139       Cu147   2.019       .  S
O139        C149   1.280       .  A
O140       Cu147   2.014       .  S
O140        C150   1.279       .  A
O141       Cu147   1.996       .  S
O141        C151   1.277       .  A
O142       Cu147   2.003       .  S
O142        C152   1.277       .  A
O143       Cu148   2.013       .  S
O143        C152   1.279       .  A
O144       Cu148   2.008       .  S
O144        C151   1.278       .  A
O145       Cu148   1.993       .  S
O145        C150   1.276       .  A
O146       Cu148   1.996       .  S
O146        C149   1.276       .  A
Cu147      Cu148   2.367       .  S
C149        C498   1.489       .  S
C150        C877   1.483       .  S
C151        C517   1.490       .  S
C152        C949   1.485       .  S
O153       Cu161   2.015       .  S
O153        C163   1.279       .  A
O154       Cu161   2.013       .  S
O154        C164   1.279       .  A
O155       Cu161   1.980       .  S
O155        C165   1.274       .  A
O156       Cu161   1.986       .  S
O156        C166   1.276       .  A
O157       Cu162   2.014       .  S
O157        C166   1.279       .  A
O158       Cu162   2.019       .  S
O158        C165   1.280       .  A
O159       Cu162   1.991       .  S
O159        C164   1.276       .  A
O160       Cu162   1.994       .  S
O160        C163   1.275       .  A
Cu161      Cu162   2.370       .  S
C163       C1074   1.473       .  S
C164        C450   1.489       .  S
C165        C469   1.475       .  S
C166        C978   1.487       .  S
C167        H168   1.109       .  S
C167        C173   1.527       .  S
C167        C172   1.532   1_655  S
C167        C171   1.521       .  S
C169        H170   1.109       .  S
C169        C175   1.549       .  S
C169        C174   1.538   1_455  S
C169        C176   1.544   1_455  S
C171        C174   1.366       .  D
C171        C445   1.478       .  S
C172        C175   1.381       .  D
C172        C594   1.496       .  S
C173        C176   1.375       .  D
C173       C1194   1.491       .  S
C174        C421   1.482       .  S
C175        C493   1.488       .  S
C176       C1338   1.488       .  S
C177        H178   1.112       .  S
C177        C183   1.535       .  S
C177        C182   1.533       .  S
C177        C181   1.527       .  S
C179        H180   1.111       .  S
C179        C185   1.542       .  S
C179        C184   1.552       .  S
C179        C186   1.550   1_565  S
C181        C184   1.373       .  D
C181        C618   1.491       .  S
C182        C185   1.373       .  D
C182        C522   1.480       .  S
C183        C186   1.381   1_565  D
C183        C397   1.495       .  S
C184       C1122   1.490   1_455  S
C185        C666   1.490       .  S
C186        C373   1.495       .  S
C187        H188   1.110       .  S
C187        C193   1.528       .  S
C187        C192   1.532       .  S
C187        C191   1.524       .  S
C189        H190   1.111   1_655  S
C189        C195   1.548   1_655  S
C189        C194   1.544       .  S
C189        C196   1.543       .  S
C191        C194   1.369       .  D
C191        C474   1.485       .  S
C192        C195   1.379   1_655  D
C192        C349   1.494   1_655  S
C193        C196   1.373       .  D
C193        C709   1.482       .  S
C194        C570   1.486       .  S
C195        C325   1.487       .  S
C196       C1314   1.489   1_554  S
O197       Cu205   2.019       .  S
O197        C207   1.280       .  A
O198       Cu205   2.014       .  S
O198        C208   1.279       .  A
O199       Cu205   2.002       .  S
O199        C209   1.277       .  A
O200       Cu205   2.003       .  S
O200        C210   1.278       .  A
O201       Cu206   2.017       .  S
O201        C210   1.279   1_565  A
O202       Cu206   2.014       .  S
O202        C209   1.279   1_565  A
O203       Cu206   1.980       .  S
O203        C208   1.274   1_565  A
O204       Cu206   1.990       .  S
O204        C207   1.275   1_565  A
Cu205      Cu206   2.365   1_545  S
C207        C853   1.489       .  S
C208        C306   1.475       .  S
C209        C402   1.494       .  S
C210        C733   1.495       .  S
C211        H212   1.110       .  S
C211        C217   1.523       .  S
C211        C216   1.529       .  S
C211        C215   1.526       .  S
C213        H214   1.110       .  S
C213        C219   1.544       .  S
C213        C218   1.541       .  S
C213        C220   1.543       .  S
C215        C218   1.372       .  D
C215        C258   1.485       .  S
C216        C219   1.377       .  D
C216        C301   1.483       .  S
C217        C220   1.371       .  D
C217        C277   1.485       .  S
C218        C637   1.484   1_554  S
C219        C546   1.491   1_545  S
C220        C685   1.483       .  S
O221       Cu229   2.029       .  S
O221        C231   1.281       .  A
O222       Cu229   2.026       .  S
O222        C232   1.281       .  A
O223       Cu229   1.988       .  S
O223        C233   1.276       .  A
O224       Cu229   1.992       .  S
O224        C234   1.275       .  A
O225       Cu230   2.028       .  S
O225        C234   1.282       .  A
O226       Cu230   2.020       .  S
O226        C233   1.280       .  A
O227       Cu230   1.992       .  S
O227        C232   1.275       .  A
O228       Cu230   1.998       .  S
O228        C231   1.276       .  A
Cu229      Cu230   2.367       .  S
C231        C378   1.483       .  S
C232        C354   1.486       .  S
C233        C282   1.484       .  S
C234        C426   1.494       .  S
O235       Cu243   2.009       .  S
O235        C245   1.279   1_554  A
O236       Cu243   2.009       .  S
O236        C246   1.278   1_554  A
O237       Cu243   1.987       .  S
O237        C247   1.275   1_554  A
O238       Cu243   1.979       .  S
O238        C248   1.274   1_554  A
O239       Cu244   2.019       .  S
O239        C248   1.280       .  A
O240       Cu244   2.024       .  S
O240        C247   1.281       .  A
O241       Cu244   1.992       .  S
O241        C246   1.277       .  A
O242       Cu244   1.994       .  S
O242        C245   1.276       .  A
Cu243      Cu244   2.368   1_554  S
C245        C253   1.485       .  S
C246       C1093   1.487       .  S
C247        C330   1.487       .  S
C248        C786   1.474       .  S
C249        C250   1.406       .  A
C249        C254   1.400       .  A
C249        C263   1.444       .  S
C250        C255   1.480       .  S
C250        C251   1.403   1_556  A
C251        C252   1.398       .  A
C251        H270   1.085       .  S
C252        C253   1.414   1_554  A
C252        C264   1.444       .  S
C253        C254   1.410       .  A
C254        H269   1.084       .  S
C255        C256   1.401   1_556  A
C255        C260   1.410       .  A
C256        C257   1.396       .  A
C256        H271   1.085       .  S
C257        C258   1.412       .  A
C257        C261   1.442       .  S
C258        C259   1.405   1_554  A
C259        C260   1.401       .  A
C259        H272   1.085       .  S
C260        C262   1.443       .  S
C261        N265   1.157       .  T
C262        N266   1.157       .  T
C263        N268   1.157       .  T
C264        N267   1.157       .  T
C273        C274   1.410       .  A
C273        C278   1.400       .  A
C273        C287   1.443       .  S
C274        C279   1.481       .  S
C274        C275   1.400       .  A
C275        C276   1.398       .  A
C275        H294   1.085       .  S
C276        C277   1.411       .  A
C276        C288   1.441       .  S
C277        C278   1.405       .  A
C278        H293   1.085       .  S
C279        C280   1.404       .  A
C279        C284   1.406       .  A
C280        C281   1.402       .  A
C280        H295   1.085       .  S
C281        C282   1.414       .  A
C281        C285   1.443       .  S
C282        C283   1.410       .  A
C283        C284   1.397       .  A
C283        H296   1.084   1_455  S
C284        C286   1.445   1_455  S
C285        N289   1.157       .  T
C286        N290   1.157       .  T
C287        N292   1.157   1_455  T
C288        N291   1.156       .  T
C297        C298   1.407       .  A
C297        C302   1.396       .  A
C297        C311   1.444       .  S
C298        C303   1.476       .  S
C298        C299   1.401       .  A
C299        C300   1.398       .  A
C299        H318   1.085   1_545  S
C300        C301   1.413       .  A
C300        C312   1.442   1_545  S
C301        C302   1.405       .  A
C302        H317   1.085       .  S
C303        C304   1.398   1_545  A
C303        C308   1.412       .  A
C304        C305   1.395       .  A
C304        H319   1.085       .  S
C305        C306   1.416   1_565  A
C305        C309   1.445       .  S
C306        C307   1.403       .  A
C307        C308   1.399       .  A
C307        H320   1.085       .  S
C308        C310   1.444       .  S
C309        N313   1.157       .  T
C310        N314   1.157       .  T
C311        N316   1.157       .  T
C312        N315   1.157       .  T
C321        C322   1.410       .  A
C321        C326   1.403       .  A
C321        C335   1.443       .  S
C322        C327   1.485       .  S
C322        C323   1.401       .  A
C323        C324   1.396       .  A
C323        H342   1.085       .  S
C324        C325   1.414       .  A
C324        C336   1.443       .  S
C325        C326   1.405       .  A
C326        H341   1.085       .  S
C327        C328   1.400       .  A
C327        C332   1.410   1_554  A
C328        C329   1.399       .  A
C328        H343   1.085       .  S
C329        C330   1.418   1_554  A
C329        C333   1.445       .  S
C330        C331   1.406       .  A
C331        C332   1.401       .  A
C331        H344   1.084       .  S
C332        C334   1.444       .  S
C333        N337   1.157       .  T
C334        N338   1.157       .  T
C335        N340   1.157       .  T
C336        N339   1.157       .  T
C345        C346   1.409   1_655  A
C345        C350   1.400       .  A
C345        C359   1.444       .  S
C346        C351   1.488       .  S
C346        C347   1.403       .  A
C347        C348   1.401       .  A
C347        H366   1.085       .  S
C348        C349   1.415       .  A
C348        C360   1.441       .  S
C349        C350   1.408   1_455  A
C350        H365   1.085       .  S
C351        C352   1.400       .  A
C351        C356   1.414   1_455  A
C352        C353   1.399       .  A
C352        H367   1.085       .  S
C353        C354   1.419       .  A
C353        C357   1.445       .  S
C354        C355   1.404       .  A
C355        C356   1.403   1_455  A
C355        H368   1.084   1_455  S
C356        C358   1.444       .  S
C357        N361   1.157       .  T
C358        N362   1.157       .  T
C359        N364   1.157       .  T
C360        N363   1.157       .  T
C369        C370   1.415       .  A
C369        C374   1.405       .  A
C369        C383   1.443       .  S
C370        C375   1.495       .  S
C370        C371   1.402       .  A
C371        C372   1.396       .  A
C371        H390   1.084       .  S
C372        C373   1.414       .  A
C372        C384   1.441       .  S
C373        C374   1.406       .  A
C374        H389   1.084       .  S
C375        C376   1.405       .  A
C375        C380   1.415       .  A
C376        C377   1.399       .  A
C376        H391   1.085       .  S
C377        C378   1.413       .  A
C377        C381   1.444       .  S
C378        C379   1.404       .  A
C379        C380   1.404       .  A
C379        H392   1.085       .  S
C380        C382   1.444       .  S
C381        N385   1.157       .  T
C382        N386   1.157       .  T
C383        N388   1.157       .  T
C384        N387   1.157   1_455  T
C393        C394   1.408   1_565  A
C393        C398   1.393       .  A
C393        C407   1.445       .  S
C394        C399   1.489       .  S
C394        C395   1.408       .  A
C395        C396   1.408       .  A
C395        H414   1.084       .  S
C396        C397   1.415   1_545  A
C396        C408   1.442       .  S
C397        C398   1.404       .  A
C398        H413   1.079       .  S
C399        C400   1.403   1_545  A
C399        C404   1.408       .  A
C400        C401   1.398       .  A
C400        H415   1.085       .  S
C401        C402   1.418   1_565  A
C401        C405   1.444       .  S
C402        C403   1.412       .  A
C403        C404   1.403       .  A
C403        H416   1.084       .  S
C404        C406   1.444       .  S
C405        N409   1.157       .  T
C406        N410   1.157       .  T
C407        N412   1.157       .  T
C408        N411   1.157       .  T
C417        C418   1.413       .  A
C417        C422   1.405   1_455  A
C417        C431   1.443   1_455  S
C418        C423   1.487       .  S
C418        C419   1.400       .  A
C419        C420   1.394       .  A
C419        H438   1.085       .  S
C420        C421   1.412   1_455  A
C420        C432   1.443       .  S
C421        C422   1.403       .  A
C422        H437   1.085       .  S
C423        C424   1.400   1_455  A
C423        C428   1.411       .  A
C424        C425   1.400       .  A
C424        H439   1.085       .  S
C425        C426   1.422   1_655  A
C425        C429   1.444       .  S
C426        C427   1.408       .  A
C427        C428   1.401       .  A
C427        H440   1.084       .  S
C428        C430   1.444       .  S
C429        N433   1.157       .  T
C430        N434   1.157       .  T
C431        N436   1.157       .  T
C432        N435   1.157       .  T
C441        C442   1.410       .  A
C441        C446   1.400       .  A
C441        C455   1.443       .  S
C442        C447   1.481       .  S
C442        C443   1.401       .  A
C443        C444   1.394       .  A
C443        H462   1.085       .  S
C444        C445   1.409       .  A
C444        C456   1.440       .  S
C445        C446   1.404       .  A
C446        H461   1.085       .  S
C447        C448   1.402       .  A
C447        C452   1.406       .  A
C448        C449   1.398       .  A
C448        H463   1.085       .  S
C449        C450   1.417       .  A
C449        C453   1.444       .  S
C450        C451   1.411       .  A
C451        C452   1.399       .  A
C451        H464   1.084       .  S
C452        C454   1.444       .  S
C453        N457   1.157       .  T
C454        N458   1.157       .  T
C455        N460   1.157       .  T
C456        N459   1.156       .  T
C465        C466   1.405       .  A
C465        C470   1.398       .  A
C465        C479   1.444       .  S
C466        C471   1.474       .  S
C466        C467   1.402       .  A
C467        C468   1.398       .  A
C467        H486   1.084       .  S
C468        C469   1.410       .  A
C468        C480   1.444       .  S
C469        C470   1.408       .  A
C470        H485   1.085       .  S
C471        C472   1.399       .  A
C471        C476   1.407       .  A
C472        C473   1.397       .  A
C472        H487   1.084       .  S
C473        C474   1.411       .  A
C473        C477   1.442       .  S
C474        C475   1.406       .  A
C475        C476   1.399       .  A
C475        H488   1.082       .  S
C476        C478   1.444       .  S
C477        N481   1.156       .  T
C478        N482   1.157       .  T
C479        N484   1.157       .  T
C480        N483   1.157       .  T
C489        C490   1.410       .  A
C489        C494   1.402       .  A
C489        C503   1.443       .  S
C490        C495   1.487       .  S
C490        C491   1.403       .  A
C491        C492   1.397       .  A
C491        H510   1.085       .  S
C492        C493   1.414       .  A
C492        C504   1.444       .  S
C493        C494   1.406       .  A
C494        H509   1.085       .  S
C495        C496   1.401       .  A
C495        C500   1.411       .  A
C496        C497   1.400       .  A
C496        H511   1.085       .  S
C497        C498   1.418       .  A
C497        C501   1.444       .  S
C498        C499   1.407       .  A
C499        C500   1.401       .  A
C499        H512   1.084       .  S
C500        C502   1.444       .  S
C501        N505   1.157       .  T
C502        N506   1.157       .  T
C503        N508   1.157       .  T
C504        N507   1.157       .  T
C513        C514   1.406       .  A
C513        C518   1.398       .  A
C513        C527   1.445       .  S
C514        C519   1.481       .  S
C514        C515   1.401       .  A
C515        C516   1.399       .  A
C515        H534   1.085       .  S
C516        C517   1.419       .  A
C516        C528   1.444       .  S
C517        C518   1.410       .  A
C518        H533   1.084       .  S
C519        C520   1.406       .  A
C519        C524   1.407       .  A
C520        C521   1.402       .  A
C520        H535   1.083       .  S
C521        C522   1.409       .  A
C521        C525   1.442       .  S
C522        C523   1.403       .  A
C523        C524   1.394       .  A
C523        H536   1.078       .  S
C524        C526   1.445       .  S
C525        N529   1.157       .  T
C526        N530   1.157       .  T
C527        N532   1.157       .  T
C528        N531   1.157       .  T
C537        C538   1.410       .  A
C537        C542   1.402       .  A
C537        C551   1.444       .  S
C538        C543   1.489       .  S
C538        C539   1.402       .  A
C539        C540   1.400       .  A
C539        H558   1.085   1_455  S
C540        C541   1.417       .  A
C540        C552   1.444   1_455  S
C541        C542   1.408       .  A
C542        H557   1.084       .  S
C543        C544   1.404       .  A
C543        C548   1.412       .  A
C544        C545   1.403       .  A
C544        H559   1.084       .  S
C545        C546   1.414       .  A
C545        C549   1.443       .  S
C546        C547   1.404       .  A
C547        C548   1.397       .  A
C547        H560   1.084       .  S
C548        C550   1.445       .  S
C549        N553   1.157   1_554  T
C550        N554   1.157       .  T
C551        N556   1.157       .  T
C552        N555   1.157       .  T
C561        C562   1.409       .  A
C561        C566   1.401       .  A
C561        C575   1.445       .  S
C562        C567   1.488   1_455  S
C562        C563   1.401   1_455  A
C563        C564   1.403       .  A
C563        H582   1.085       .  S
C564        C565   1.421   1_655  A
C564        C576   1.444       .  S
C565        C566   1.409       .  A
C566        H581   1.084       .  S
C567        C568   1.400   1_655  A
C567        C572   1.413       .  A
C568        C569   1.395       .  A
C568        H583   1.086       .  S
C569        C570   1.413   1_455  A
C569        C573   1.443       .  S
C570        C571   1.404       .  A
C571        C572   1.407       .  A
C571        H584   1.085       .  S
C572        C574   1.442       .  S
C573        N577   1.156       .  T
C574        N578   1.157       .  T
C575        N580   1.157       .  T
C576        N579   1.157       .  T
C585        C586   1.420       .  A
C585        C590   1.402       .  A
C585        C599   1.444       .  S
C586        C591   1.495       .  S
C586        C587   1.405   1_455  A
C587        C588   1.395       .  A
C587        H606   1.084       .  S
C588        C589   1.408   1_655  A
C588        C600   1.444       .  S
C589        C590   1.399       .  A
C590        H605   1.085       .  S
C591        C592   1.406       .  A
C591        C596   1.414   1_455  A
C592        C593   1.404       .  A
C592        H607   1.084       .  S
C593        C594   1.415       .  A
C593        C597   1.441       .  S
C594        C595   1.406   1_455  A
C595        C596   1.395       .  A
C595        H608   1.085       .  S
C596        C598   1.445       .  S
C597        N601   1.157       .  T
C598        N602   1.157       .  T
C599        N604   1.157       .  T
C600        N603   1.157       .  T
C609        C610   1.407       .  A
C609        C614   1.399       .  A
C609        C623   1.444       .  S
C610        C615   1.478       .  S
C610        C611   1.401   1_455  A
C611        C612   1.401       .  A
C611        H630   1.085       .  S
C612        C613   1.417   1_655  A
C612        C624   1.444       .  S
C613        C614   1.408       .  A
C614        H629   1.084       .  S
C615        C616   1.393       .  A
C615        C620   1.409       .  A
C616        C617   1.392       .  A
C616        H631   1.086       .  S
C617        C618   1.413       .  A
C617        C621   1.437       .  S
C618        C619   1.408       .  A
C619        C620   1.406       .  A
C619        H632   1.084       .  S
C620        C622   1.442       .  S
C621        N625   1.155       .  T
C622        N626   1.157   1_455  T
C623        N628   1.157       .  T
C624        N627   1.157       .  T
C633        C634   1.411       .  A
C633        C638   1.405       .  A
C633        C647   1.442       .  S
C634        C639   1.484       .  S
C634        C635   1.399       .  A
C635        C636   1.393       .  A
C635        H654   1.085       .  S
C636        C637   1.414       .  A
C636        C648   1.442       .  S
C637        C638   1.405       .  A
C638        H653   1.084       .  S
C639        C640   1.399       .  A
C639        C644   1.412   1_545  A
C640        C641   1.398       .  A
C640        H655   1.085       .  S
C641        C642   1.420   1_545  A
C641        C645   1.444       .  S
C642        C643   1.406       .  A
C643        C644   1.402       .  A
C643        H656   1.084       .  S
C644        C646   1.445       .  S
C645        N649   1.157       .  T
C646        N650   1.157       .  T
C647        N652   1.157       .  T
C648        N651   1.157   1_556  T
C657        C658   1.412       .  A
C657        C662   1.401       .  A
C657        C671   1.444       .  S
C658        C663   1.492       .  S
C658        C659   1.406       .  A
C659        C660   1.405       .  A
C659        H678   1.084   1_565  S
C660        C661   1.412       .  A
C660        C672   1.443   1_565  S
C661        C662   1.404       .  A
C662        H677   1.085       .  S
C663        C664   1.406       .  A
C663        C668   1.411       .  A
C664        C665   1.405       .  A
C664        H679   1.084       .  S
C665        C666   1.411       .  A
C665        C669   1.442       .  S
C666        C667   1.404       .  A
C667        C668   1.401       .  A
C667        H680   1.084   1_565  S
C668        C670   1.444   1_565  S
C669        N673   1.157       .  T
C670        N674   1.157       .  T
C671        N676   1.157       .  T
C672        N675   1.157       .  T
C681        C682   1.410       .  A
C681        C686   1.396   1_655  A
C681        C695   1.445   1_554  S
C682        C687   1.483       .  S
C682        C683   1.404       .  A
C683        C684   1.403       .  A
C683        H702   1.084       .  S
C684        C685   1.410   1_655  A
C684        C696   1.442       .  S
C685        C686   1.403       .  A
C686        H701   1.085       .  S
C687        C688   1.401   1_554  A
C687        C692   1.408       .  A
C688        C689   1.401       .  A
C688        H703   1.085       .  S
C689        C690   1.419   1_556  A
C689        C693   1.444       .  S
C690        C691   1.409       .  A
C691        C692   1.399       .  A
C691        H704   1.084       .  S
C692        C694   1.445       .  S
C693        N697   1.157       .  T
C694        N698   1.157       .  T
C695        N700   1.157       .  T
C696        N699   1.157   1_545  T
C705        C706   1.410   1_556  A
C705        C710   1.398   1_556  A
C705        C719   1.444       .  S
C706        C711   1.481       .  S
C706        C707   1.402       .  A
C707        C708   1.398       .  A
C707        H726   1.085       .  S
C708        C709   1.410       .  A
C708        C720   1.442       .  S
C709        C710   1.403       .  A
C710        H725   1.083   1_554  S
C711        C712   1.404       .  A
C711        C716   1.407   1_554  A
C712        C713   1.402       .  A
C712        H727   1.085       .  S
C713        C714   1.416       .  A
C713        C717   1.444       .  S
C714        C715   1.409   1_554  A
C715        C716   1.396       .  A
C715        H728   1.084       .  S
C716        C718   1.445       .  S
C717        N721   1.157       .  T
C718        N722   1.157       .  T
C719        N724   1.157       .  T
C720        N723   1.156       .  T
C729        C730   1.405       .  A
C729        C734   1.399       .  A
C729        C743   1.445       .  S
C730        C735   1.481       .  S
C730        C731   1.400       .  A
C731        C732   1.403   1_545  A
C731        H750   1.085   1_545  S
C732        C733   1.420   1_565  A
C732        C744   1.444       .  S
C733        C734   1.411       .  A
C734        H749   1.084       .  S
C735        C736   1.400       .  A
C735        C740   1.407       .  A
C736        C737   1.402       .  A
C736        H751   1.088       .  S
C737        C738   1.415       .  A
C737        C741   1.442       .  S
C738        C739   1.407       .  A
C739        C740   1.397       .  A
C739        H752   1.087       .  S
C740        C742   1.444       .  S
C741        N745   1.157       .  T
C742        N746   1.157       .  T
C743        N748   1.157       .  T
C744        N747   1.157       .  T
C753        C754   1.405       .  A
C753        C758   1.399       .  A
C753        C767   1.444       .  S
C754        C759   1.483       .  S
C754        C755   1.405   1_565  A
C755        C756   1.402       .  A
C755        H774   1.084       .  S
C756        C757   1.414   1_545  A
C756        C768   1.444       .  S
C757        C758   1.409       .  A
C758        H773   1.085       .  S
C759        C760   1.407       .  A
C759        C764   1.408       .  A
C760        C761   1.404   1_565  A
C760        H775   1.079       .  S
C761        C762   1.406       .  A
C761        C765   1.442       .  S
C762        C763   1.405       .  A
C763        C764   1.397   1_545  A
C763        H776   1.079       .  S
C764        C766   1.444       .  S
C765        N769   1.157       .  T
C766        N770   1.157       .  T
C767        N772   1.157       .  T
C768        N771   1.157       .  T
C777        C778   1.404   1_554  A
C777        C782   1.398   1_554  A
C777        C791   1.444       .  S
C778        C783   1.475       .  S
C778        C779   1.394       .  A
C779        C780   1.396       .  A
C779        H798   1.086       .  S
C780        C781   1.423       .  A
C780        C792   1.439       .  S
C781        C782   1.412       .  A
C782        H797   1.081   1_556  S
C783        C784   1.404       .  A
C783        C788   1.406   1_556  A
C784        C785   1.399       .  A
C784        H799   1.085       .  S
C785        C786   1.410       .  A
C785        C789   1.444       .  S
C786        C787   1.407   1_556  A
C787        C788   1.396       .  A
C787        H800   1.085       .  S
C788        C790   1.444       .  S
C789        N793   1.157       .  T
C790        N794   1.157       .  T
C791        N796   1.157       .  T
C792        N795   1.156       .  T
C801        C802   1.412       .  A
C801        C806   1.402       .  A
C801        C815   1.443       .  S
C802        C807   1.486       .  S
C802        C803   1.402       .  A
C803        C804   1.397       .  A
C803        H822   1.085       .  S
C804        C805   1.410       .  A
C804        C816   1.442       .  S
C805        C806   1.401       .  A
C806        H821   1.084       .  S
C807        C808   1.400       .  A
C807        C812   1.410   1_556  A
C808        C809   1.399       .  A
C808        H823   1.085       .  S
C809        C810   1.421       .  A
C809        C813   1.444       .  S
C810        C811   1.408   1_556  A
C811        C812   1.401       .  A
C811        H824   1.084       .  S
C812        C814   1.444       .  S
C813        N817   1.157       .  T
C814        N818   1.157       .  T
C815        N820   1.157       .  T
C816        N819   1.156   1_556  T
C825        C826   1.407       .  A
C825        C830   1.400       .  A
C825        C839   1.444       .  S
C826        C831   1.477       .  S
C826        C827   1.400       .  A
C827        C828   1.397       .  A
C827        H846   1.085       .  S
C828        C829   1.417       .  A
C828        C840   1.445       .  S
C829        C830   1.408       .  A
C830        H845   1.084       .  S
C831        C832   1.400       .  A
C831        C836   1.408       .  A
C832        C833   1.396       .  A
C832        H847   1.085       .  S
C833        C834   1.409       .  A
C833        C837   1.442       .  S
C834        C835   1.404       .  A
C835        C836   1.400       .  A
C835        H848   1.084       .  S
C836        C838   1.443       .  S
C837        N841   1.157       .  T
C838        N842   1.157       .  T
C839        N844   1.157       .  T
C840        N843   1.157       .  T
C849        C850   1.410   1_545  A
C849        C854   1.399       .  A
C849        C863   1.444       .  S
C850        C855   1.482       .  S
C850        C851   1.399       .  A
C851        C852   1.399       .  A
C851        H870   1.085       .  S
C852        C853   1.420   1_565  A
C852        C864   1.444       .  S
C853        C854   1.407       .  A
C854        H869   1.084       .  S
C855        C856   1.400       .  A
C855        C860   1.410       .  A
C856        C857   1.394       .  A
C856        H871   1.085   1_565  S
C857        C858   1.414       .  A
C857        C861   1.443       .  S
C858        C859   1.404       .  A
C859        C860   1.402       .  A
C859        H872   1.085       .  S
C860        C862   1.443       .  S
C861        N865   1.157       .  T
C862        N866   1.157       .  T
C863        N868   1.157       .  T
C864        N867   1.157       .  T
C873        C874   1.413       .  A
C873        C878   1.399       .  A
C873        C887   1.445       .  S
C874        C879   1.482       .  S
C874        C875   1.400       .  A
C875        C876   1.399       .  A
C875        H894   1.085       .  S
C876        C877   1.419       .  A
C876        C888   1.445       .  S
C877        C878   1.404       .  A
C878        H893   1.085       .  S
C879        C880   1.402       .  A
C879        C884   1.409       .  A
C880        C881   1.398       .  A
C880        H895   1.085       .  S
C881        C882   1.413       .  A
C881        C885   1.442       .  S
C882        C883   1.405       .  A
C883        C884   1.398       .  A
C883        H896   1.085       .  S
C884        C886   1.444       .  S
C885        N889   1.157       .  T
C886        N890   1.157       .  T
C887        N892   1.157       .  T
C888        N891   1.157       .  T
C897        C898   1.413       .  A
C897        C902   1.401       .  A
C897        C911   1.445       .  S
C898        C903   1.480       .  S
C898        C899   1.397   1_565  A
C899        C900   1.396       .  A
C899        H918   1.085       .  S
C900        C901   1.420   1_545  A
C900        C912   1.445       .  S
C901        C902   1.404       .  A
C902        H917   1.084       .  S
C903        C904   1.402   1_565  A
C903        C908   1.409       .  A
C904        C905   1.397       .  A
C904        H919   1.085       .  S
C905        C906   1.411   1_545  A
C905        C909   1.442       .  S
C906        C907   1.404       .  A
C907        C908   1.398       .  A
C907        H920   1.085       .  S
C908        C910   1.444       .  S
C909        N913   1.157       .  T
C910        N914   1.157       .  T
C911        N916   1.157       .  T
C912        N915   1.157       .  T
C921        C922   1.407       .  A
C921        C926   1.397       .  A
C921        C935   1.445       .  S
C922        C927   1.479       .  S
C922        C923   1.401       .  A
C923        C924   1.401       .  A
C923        H942   1.085       .  S
C924        C925   1.419       .  A
C924        C936   1.444       .  S
C925        C926   1.409       .  A
C926        H941   1.084       .  S
C927        C928   1.401       .  A
C927        C932   1.409       .  A
C928        C929   1.400       .  A
C928        H943   1.085       .  S
C929        C930   1.413       .  A
C929        C933   1.443       .  S
C930        C931   1.405       .  A
C931        C932   1.396       .  A
C931        H944   1.085       .  S
C932        C934   1.445       .  S
C933        N937   1.157       .  T
C934        N938   1.157       .  T
C935        N940   1.157       .  T
C936        N939   1.157       .  T
C945        C946   1.410       .  A
C945        C950   1.400       .  A
C945        C959   1.445       .  S
C946        C951   1.487       .  S
C946        C947   1.404       .  A
C947        C948   1.402       .  A
C947        H966   1.085       .  S
C948        C949   1.415       .  A
C948        C960   1.444       .  S
C949        C950   1.407       .  A
C950        H965   1.085       .  S
C951        C952   1.406       .  A
C951        C956   1.411       .  A
C952        C953   1.403       .  A
C952        H967   1.084       .  S
C953        C954   1.409       .  A
C953        C957   1.443       .  S
C954        C955   1.399       .  A
C955        C956   1.397       .  A
C955        H968   1.084       .  S
C956        C958   1.445       .  S
C957        N961   1.157       .  T
C958        N962   1.157       .  T
C959        N964   1.157       .  T
C960        N963   1.157       .  T
C969        C970   1.407       .  A
C969        C974   1.394       .  A
C969        C983   1.445       .  S
C970        C975   1.479       .  S
C970        C971   1.400       .  A
C971        C972   1.401       .  A
C971        H990   1.085       .  S
C972        C973   1.415       .  A
C972        C984   1.441       .  S
C973        C974   1.407       .  A
C974        H989   1.084       .  S
C975        C976   1.402       .  A
C975        C980   1.406       .  A
C976        C977   1.401       .  A
C976        H991   1.085       .  S
C977        C978   1.418       .  A
C977        C981   1.444       .  S
C978        C979   1.409       .  A
C979        C980   1.396       .  A
C979        H992   1.084       .  S
C980        C982   1.445       .  S
C981        N985   1.157       .  T
C982        N986   1.157       .  T
C983        N988   1.157       .  T
C984        N987   1.157       .  T
C993        C994   1.411       .  A
C993        C998   1.398       .  A
C993       C1007   1.444       .  S
C994        C999   1.487       .  S
C994        C995   1.402       .  A
C995        C996   1.399       .  A
C995       H1014   1.085       .  S
C996        C997   1.418       .  A
C996       C1008   1.441       .  S
C997        C998   1.406       .  A
C998       H1013   1.077       .  S
C999       C1000   1.405       .  A
C999       C1004   1.413       .  A
C1000      C1001   1.395       .  A
C1000      H1015   1.085       .  S
C1001      C1002   1.409       .  A
C1001      C1005   1.445       .  S
C1002      C1003   1.403       .  A
C1003      C1004   1.403       .  A
C1003      H1016   1.085       .  S
C1004      C1006   1.444       .  S
C1005      N1009   1.157       .  T
C1006      N1010   1.157       .  T
C1007      N1012   1.157       .  T
C1008      N1011   1.157       .  T
C1017      C1018   1.408       .  A
C1017      C1022   1.392       .  A
C1017      C1031   1.445       .  S
C1018      C1023   1.476       .  S
C1018      C1019   1.406   1_556  A
C1019      C1020   1.401   1_554  A
C1019      H1038   1.084       .  S
C1020      C1021   1.405       .  A
C1020      C1032   1.442   1_556  S
C1021      C1022   1.401       .  A
C1022      H1037   1.085       .  S
C1023      C1024   1.400       .  A
C1023      C1028   1.407   1_556  A
C1024      C1025   1.398       .  A
C1024      H1039   1.085       .  S
C1025      C1026   1.416       .  A
C1025      C1029   1.445       .  S
C1026      C1027   1.407   1_556  A
C1027      C1028   1.398       .  A
C1027      H1040   1.084       .  S
C1028      C1030   1.444       .  S
C1029      N1033   1.157       .  T
C1030      N1034   1.157       .  T
C1031      N1036   1.157       .  T
C1032      N1035   1.157       .  T
C1041      C1042   1.409       .  A
C1041      C1046   1.397       .  A
C1041      C1055   1.445       .  S
C1042      C1047   1.487       .  S
C1042      C1043   1.404       .  A
C1043      C1044   1.402       .  A
C1043      H1062   1.084       .  S
C1044      C1045   1.415       .  A
C1044      C1056   1.442       .  S
C1045      C1046   1.406       .  A
C1046      H1061   1.078       .  S
C1047      C1048   1.400       .  A
C1047      C1052   1.412       .  A
C1048      C1049   1.400       .  A
C1048      H1063   1.085       .  S
C1049      C1050   1.420       .  A
C1049      C1053   1.444       .  S
C1050      C1051   1.407       .  A
C1051      C1052   1.401       .  A
C1051      H1064   1.084       .  S
C1052      C1054   1.444       .  S
C1053      N1057   1.157       .  T
C1054      N1058   1.157       .  T
C1055      N1060   1.157       .  T
C1056      N1059   1.157       .  T
C1065      C1066   1.410       .  A
C1065      C1070   1.401       .  A
C1065      C1079   1.444       .  S
C1066      C1071   1.487       .  S
C1066      C1067   1.398       .  A
C1067      C1068   1.398       .  A
C1067      H1086   1.086       .  S
C1068      C1069   1.421       .  A
C1068      C1080   1.440       .  S
C1069      C1070   1.410       .  A
C1070      H1085   1.080       .  S
C1071      C1072   1.405       .  A
C1071      C1076   1.412       .  A
C1072      C1073   1.398       .  A
C1072      H1087   1.085       .  S
C1073      C1074   1.409       .  A
C1073      C1077   1.445       .  S
C1074      C1075   1.404       .  A
C1075      C1076   1.402       .  A
C1075      H1088   1.085       .  S
C1076      C1078   1.443       .  S
C1077      N1081   1.157       .  T
C1078      N1082   1.157       .  T
C1079      N1084   1.157       .  T
C1080      N1083   1.157       .  T
C1089      C1090   1.404       .  A
C1089      C1094   1.397       .  A
C1089      C1103   1.444       .  S
C1090      C1095   1.475       .  S
C1090      C1091   1.399   1_556  A
C1091      C1092   1.400       .  A
C1091      H1110   1.085       .  S
C1092      C1093   1.419   1_554  A
C1092      C1104   1.444       .  S
C1093      C1094   1.409       .  A
C1094      H1109   1.084       .  S
C1095      C1096   1.396       .  A
C1095      C1100   1.404       .  A
C1096      C1097   1.401       .  A
C1096      H1111   1.085       .  S
C1097      C1098   1.421       .  A
C1097      C1101   1.441       .  S
C1098      C1099   1.410       .  A
C1099      C1100   1.395       .  A
C1099      H1112   1.083       .  S
C1100      C1102   1.445       .  S
C1101      N1105   1.157       .  T
C1102      N1106   1.157       .  T
C1103      N1108   1.157       .  T
C1104      N1107   1.157       .  T
C1113      C1114   1.413       .  A
C1113      C1118   1.400       .  A
C1113      C1127   1.444       .  S
C1114      C1119   1.497       .  S
C1114      C1115   1.408       .  A
C1115      C1116   1.405       .  A
C1115      H1134   1.085       .  S
C1116      C1117   1.414       .  A
C1116      C1128   1.443       .  S
C1117      C1118   1.407       .  A
C1118      H1133   1.085       .  S
C1119      C1120   1.408       .  A
C1119      C1124   1.414       .  A
C1120      C1121   1.405       .  A
C1120      H1135   1.084       .  S
C1121      C1122   1.411       .  A
C1121      C1125   1.444       .  S
C1122      C1123   1.402       .  A
C1123      C1124   1.400       .  A
C1123      H1136   1.083   1_655  S
C1124      C1126   1.444       .  S
C1125      N1129   1.157       .  T
C1126      N1130   1.157       .  T
C1127      N1132   1.157       .  T
C1128      N1131   1.157       .  T
C1137      C1138   1.412       .  A
C1137      C1142   1.403       .  A
C1137      C1151   1.445       .  S
C1138      C1143   1.487       .  S
C1138      C1139   1.399       .  A
C1139      C1140   1.399       .  A
C1139      H1158   1.085       .  S
C1140      C1141   1.419       .  A
C1140      C1152   1.444       .  S
C1141      C1142   1.407       .  A
C1142      H1157   1.084       .  S
C1143      C1144   1.401       .  A
C1143      C1148   1.412       .  A
C1144      C1145   1.395       .  A
C1144      H1159   1.085       .  S
C1145      C1146   1.413       .  A
C1145      C1149   1.442       .  S
C1146      C1147   1.405       .  A
C1147      C1148   1.405       .  A
C1147      H1160   1.085       .  S
C1148      C1150   1.443       .  S
C1149      N1153   1.157       .  T
C1150      N1154   1.157       .  T
C1151      N1156   1.157       .  T
C1152      N1155   1.157       .  T
C1161      C1162   1.405       .  A
C1161      C1166   1.398       .  A
C1161      C1175   1.445       .  S
C1162      C1167   1.477       .  S
C1162      C1163   1.402       .  A
C1163      C1164   1.399       .  A
C1163      H1182   1.085       .  S
C1164      C1165   1.415       .  A
C1164      C1176   1.443       .  S
C1165      C1166   1.411       .  A
C1166      H1181   1.084       .  S
C1167      C1168   1.395       .  A
C1167      C1172   1.406       .  A
C1168      C1169   1.394       .  A
C1168      H1183   1.086       .  S
C1169      C1170   1.416       .  A
C1169      C1173   1.437       .  S
C1170      C1171   1.411       .  A
C1171      C1172   1.401       .  A
C1171      H1184   1.084       .  S
C1172      C1174   1.443       .  S
C1173      N1177   1.156       .  T
C1174      N1178   1.157       .  T
C1175      N1180   1.157       .  T
C1176      N1179   1.157       .  T
C1185      C1186   1.412       .  A
C1185      C1190   1.400       .  A
C1185      C1199   1.443       .  S
C1186      C1191   1.482       .  S
C1186      C1187   1.401       .  A
C1187      C1188   1.402       .  A
C1187      H1206   1.085       .  S
C1188      C1189   1.415       .  A
C1188      C1200   1.445       .  S
C1189      C1190   1.400       .  A
C1190      H1205   1.085       .  S
C1191      C1192   1.400       .  A
C1191      C1196   1.408       .  A
C1192      C1193   1.401       .  A
C1192      H1207   1.085       .  S
C1193      C1194   1.416       .  A
C1193      C1197   1.442       .  S
C1194      C1195   1.405       .  A
C1195      C1196   1.400       .  A
C1195      H1208   1.085       .  S
C1196      C1198   1.444       .  S
C1197      N1201   1.157       .  T
C1198      N1202   1.157       .  T
C1199      N1204   1.157       .  T
C1200      N1203   1.157       .  T
C1209      C1210   1.406       .  A
C1209      C1214   1.400       .  A
C1209      C1223   1.444       .  S
C1210      C1215   1.482       .  S
C1210      C1211   1.397       .  A
C1211      C1212   1.401       .  A
C1211      H1230   1.086       .  S
C1212      C1213   1.421       .  A
C1212      C1224   1.439       .  S
C1213      C1214   1.408       .  A
C1214      H1229   1.080       .  S
C1215      C1216   1.402       .  A
C1215      C1220   1.410       .  A
C1216      C1217   1.397       .  A
C1216      H1231   1.085       .  S
C1217      C1218   1.409       .  A
C1217      C1221   1.445       .  S
C1218      C1219   1.404       .  A
C1219      C1220   1.404       .  A
C1219      H1232   1.085       .  S
C1220      C1222   1.443       .  S
C1221      N1225   1.157       .  T
C1222      N1226   1.157       .  T
C1223      N1228   1.157       .  T
C1224      N1227   1.157       .  T
C1233      C1234   1.409       .  A
C1233      C1238   1.395       .  A
C1233      C1247   1.443       .  S
C1234      C1239   1.486       .  S
C1234      C1235   1.404       .  A
C1235      C1236   1.403       .  A
C1235      H1254   1.085       .  S
C1236      C1237   1.415       .  A
C1236      C1248   1.443       .  S
C1237      C1238   1.405       .  A
C1238      H1253   1.085       .  S
C1239      C1240   1.407       .  A
C1239      C1244   1.411       .  A
C1240      C1241   1.400       .  A
C1240      H1255   1.084       .  S
C1241      C1242   1.408       .  A
C1241      C1245   1.443       .  S
C1242      C1243   1.398       .  A
C1243      C1244   1.396       .  A
C1243      H1256   1.083       .  S
C1244      C1246   1.444       .  S
C1245      N1249   1.157       .  T
C1246      N1250   1.157       .  T
C1247      N1252   1.156       .  T
C1248      N1251   1.157       .  T
C1257      C1258   1.405       .  A
C1257      C1262   1.396       .  A
C1257      C1271   1.444       .  S
C1258      C1263   1.476       .  S
C1258      C1259   1.403       .  A
C1259      C1260   1.402       .  A
C1259      H1278   1.085       .  S
C1260      C1261   1.412       .  A
C1260      C1272   1.444       .  S
C1261      C1262   1.406       .  A
C1262      H1277   1.085       .  S
C1263      C1264   1.399       .  A
C1263      C1268   1.408       .  A
C1264      C1265   1.397       .  A
C1264      H1279   1.085       .  S
C1265      C1266   1.412       .  A
C1265      C1269   1.443       .  S
C1266      C1267   1.405       .  A
C1267      C1268   1.400       .  A
C1267      H1280   1.085       .  S
C1268      C1270   1.444       .  S
C1269      N1273   1.157       .  T
C1270      N1274   1.157       .  T
C1271      N1276   1.157       .  T
C1272      N1275   1.157       .  T
C1281      C1282   1.406       .  A
C1281      C1286   1.399       .  A
C1281      C1295   1.444       .  S
C1282      C1287   1.479       .  S
C1282      C1283   1.400       .  A
C1283      C1284   1.401       .  A
C1283      H1302   1.085       .  S
C1284      C1285   1.419       .  A
C1284      C1296   1.444       .  S
C1285      C1286   1.409       .  A
C1286      H1301   1.084       .  S
C1287      C1288   1.404       .  A
C1287      C1292   1.407       .  A
C1288      C1289   1.403       .  A
C1288      H1303   1.085       .  S
C1289      C1290   1.410       .  A
C1289      C1293   1.442       .  S
C1290      C1291   1.398       .  A
C1291      C1292   1.394       .  A
C1291      H1304   1.080       .  S
C1292      C1294   1.444       .  S
C1293      N1297   1.157       .  T
C1294      N1298   1.157       .  T
C1295      N1300   1.157       .  T
C1296      N1299   1.157       .  T
C1305      C1306   1.412       .  A
C1305      C1310   1.406       .  A
C1305      C1319   1.444       .  S
C1306      C1311   1.495       .  S
C1306      C1307   1.401       .  A
C1307      C1308   1.404       .  A
C1307      H1326   1.085       .  S
C1308      C1309   1.423       .  A
C1308      C1320   1.444       .  S
C1309      C1310   1.409       .  A
C1310      H1325   1.084       .  S
C1311      C1312   1.404       .  A
C1311      C1316   1.414       .  A
C1312      C1313   1.401       .  A
C1312      H1327   1.085       .  S
C1313      C1314   1.412       .  A
C1313      C1317   1.444       .  S
C1314      C1315   1.403       .  A
C1315      C1316   1.407       .  A
C1315      H1328   1.085   1_655  S
C1316      C1318   1.443       .  S
C1317      N1321   1.157   1_556  T
C1318      N1322   1.157   1_655  T
C1319      N1324   1.157       .  T
C1320      N1323   1.157       .  T
C1329      C1330   1.411       .  A
C1329      C1334   1.399       .  A
C1329      C1343   1.445       .  S
C1330      C1335   1.488       .  S
C1330      C1331   1.404       .  A
C1331      C1332   1.402       .  A
C1331      H1350   1.085       .  S
C1332      C1333   1.417       .  A
C1332      C1344   1.444       .  S
C1333      C1334   1.407       .  A
C1334      H1349   1.085       .  S
C1335      C1336   1.406       .  A
C1335      C1340   1.411       .  A
C1336      C1337   1.403       .  A
C1336      H1351   1.084       .  S
C1337      C1338   1.412       .  A
C1337      C1341   1.443   1_655  S
C1338      C1339   1.405       .  A
C1339      C1340   1.395       .  A
C1339      H1352   1.085       .  S
C1340      C1342   1.445       .  S
C1341      N1345   1.157       .  T
C1342      N1346   1.157       .  T
C1343      N1348   1.157       .  T
C1344      N1347   1.157       .  T
C1353      C1354   1.408       .  A
C1353      C1358   1.398       .  A
C1353      C1367   1.442       .  S
C1354      C1359   1.485       .  S
C1354      C1355   1.405       .  A
C1355      C1356   1.400       .  A
C1355      H1374   1.085       .  S
C1356      C1357   1.413       .  A
C1356      C1368   1.444       .  S
C1357      C1358   1.407       .  A
C1358      H1373   1.085       .  S
C1359      C1360   1.407       .  A
C1359      C1364   1.410       .  A
C1360      C1361   1.404       .  A
C1360      H1375   1.084       .  S
C1361      C1362   1.408       .  A
C1361      C1365   1.442       .  S
C1362      C1363   1.399       .  A
C1363      C1364   1.395       .  A
C1363      H1376   1.080       .  S
C1364      C1366   1.444       .  S
C1365      N1369   1.157       .  T
C1366      N1370   1.157       .  T
C1367      N1372   1.156       .  T
C1368      N1371   1.157       .  T
C1377      C1378   1.409       .  A
C1377      C1382   1.399       .  A
C1377      C1391   1.444       .  S
C1378      C1383   1.488       .  S
C1378      C1379   1.407       .  A
C1379      C1380   1.405       .  A
C1379      H1398   1.084       .  S
C1380      C1381   1.407       .  A
C1380      C1392   1.441       .  S
C1381      C1382   1.403       .  A
C1382      H1397   1.085       .  S
C1383      C1384   1.406       .  A
C1383      C1388   1.406       .  A
C1384      C1385   1.404       .  A
C1384      H1399   1.085       .  S
C1385      C1386   1.415       .  A
C1385      C1389   1.444       .  S
C1386      C1387   1.411       .  A
C1387      C1388   1.401       .  A
C1387      H1400   1.084       .  S
C1388      C1390   1.444       .  S
C1389      N1393   1.157       .  T
C1390      N1394   1.157       .  T
C1391      N1396   1.157       .  T
C1392      N1395   1.157       .  T
