geometry optimzed in LAMMPS
_audit_creation_date              2020-11-30 
_audit_creation_method            'lammps2cif' 
_symmetry_space_group_name_H-M    'P1' 
_symmetry_Int_Tables_number       1 
_symmetry_cell_setting            triclinic 
loop_ 
_symmetry_equiv_pos_as_xyz 
  x,y,z 
_cell_length_a                    36.14197702 
_cell_length_b                    36.676480179717416 
_cell_length_c                    37.06674879714615 
_cell_angle_alpha                 90.16444079847541 
_cell_angle_beta                  90.46871103573538 
_cell_angle_gamma                 89.62466108666354 
loop_ 
_atom_site_label 
_atom_site_type_symbol 
_atom_site_fract_x 
_atom_site_fract_y 
_atom_site_fract_z 
_atom_site_charge 
C1          C  0.28977704  0.16449473  0.01945694     0.80400
N2          N  0.26479206  0.18360885  0.03779991    -0.77900
C3          C  0.23052355  0.17201988  0.04332590     0.82800
N4          N  0.22025409  0.13954866  0.02920128    -0.77900
C5          C  0.24368610  0.11930464  0.00856954     0.82900
N6          N  0.27971104  0.13142155  0.00399728    -0.79600
C7          C  0.10135332  0.03198807  0.34198137     0.80400
N8          N  0.11923904  0.05270835  0.31802749    -0.77900
C9          C  0.10608266  0.05784139  0.28441616     0.82800
N10         N  0.07391228  0.04214079  0.27411940    -0.77900
C11         C  0.05566927  0.01916015  0.29647962     0.82900
N12         N  0.06947363  0.01404396  0.33111477    -0.79600
C13         C  0.46417906  0.35678290  0.15699386     0.80400
N14         N  0.44299761  0.34468423  0.12794890    -0.77900
C15         C  0.45215804  0.31165016  0.11200886     0.82800
N16         N  0.48249160  0.29333072  0.12415340    -0.77900
C17         C  0.00306977  0.30589209  0.15125357     0.82900
N18         N  0.99329203  0.33666956  0.16803899    -0.79600
C19         C  0.19131490  0.21936154  0.18183606     0.03300
C20         C  0.19665228  0.19670381  0.21165437    -0.11700
C21         C  0.16778168  0.19215592  0.23662903     0.00800
C22         C  0.13949445  0.21938989  0.23625036    -0.11400
C23         C  0.13628494  0.24421327  0.20783836     0.03300
C24         C  0.16274429  0.24425717  0.18131215    -0.10800
H25         H  0.22093268  0.17998303  0.21156933     0.08900
H26         H  0.11600150  0.21842295  0.25378445     0.06400
H27         H  0.15719629  0.25895982  0.15642359     0.06200
O28         O  0.26275814  0.30798500  0.22776088    -0.85200
O29         O  0.18837152  0.32265052  0.25434307    -0.82200
C30         C  0.16242256  0.33695763  0.27192417     0.98300
O31         O  0.16174632  0.32909452  0.30521223    -0.82300
O32         O  0.19121381  0.25500327  0.31422675    -0.84900
C33         C  0.20889902  0.23019153  0.33027678     1.02800
O34         O  0.24376412  0.23037968  0.32619959    -0.77700
O35         O  0.25363060  0.25661543  0.25423381    -0.77900
C36         C  0.26743387  0.27326865  0.22813311     1.02700
O37         O  0.28695868  0.36136292  0.27891182    -0.85200
O38         O  0.21690740  0.37842185  0.30561286    -0.82300
C39         C  0.21179508  0.37869904  0.34012824     0.98300
O40         O  0.21202376  0.34964924  0.35785571    -0.82300
O41         O  0.23949859  0.28185414  0.37309505    -0.84900
C42         C  0.27500143  0.28059841  0.37581559     1.02800
O43         O  0.29514714  0.28313320  0.34839639    -0.77700
O44         O  0.31223680  0.30651956  0.27902722    -0.77900
C45         C  0.31495702  0.34133458  0.27500497     1.02700
Cr46       Cr  0.23783568  0.34029498  0.26876645     1.93700
Cr47       Cr  0.20328305  0.30294464  0.33500001     1.93200
Cr48       Cr  0.27385758  0.27146945  0.30119440     1.39100
O49         O  0.24006643  0.30691170  0.30349782    -1.22900
C50         C  0.03874820  0.49289792  0.09687503     0.80400
N51         N  0.02482542  0.46596285  0.07659488    -0.77900
C52         C  0.03791469  0.45797973  0.04392700     0.82800
N53         N  0.06634468  0.47765059  0.03096403    -0.77900
C54         C  0.08377147  0.00705841  0.04896002     0.82900
N55         N  0.07335183  0.00807292  0.08500137    -0.79600
C56         C  0.17653323  0.17157641  0.40892399     0.80400
N57         N  0.15349574  0.19601992  0.42397519    -0.77900
C58         C  0.14867161  0.22945778  0.41015078     0.82800
N59         N  0.16804466  0.23892359  0.38066427    -0.77900
C60         C  0.19146266  0.21536391  0.36398638     0.82900
N61         N  0.19558615  0.18063456  0.37789284    -0.79600
C62         C  0.35233058  0.35691496  0.26789706     0.80400
N63         N  0.37988934  0.33517308  0.27919650    -0.77900
C64         C  0.41534615  0.34554384  0.27956463     0.82800
N65         N  0.42374850  0.37895798  0.26693038    -0.77900
C66         C  0.39749396  0.40180339  0.25325253     0.82900
N67         N  0.36067272  0.39120533  0.25437154    -0.79600
C68         C  0.97487900  0.33841676  0.47189658     0.03300
C69         C  0.00177774  0.31107071  0.47448792    -0.12900
C70         C  0.00396726  0.28388248  0.44802556     0.00800
C71         C  0.47343529  0.27926696  0.42461300    -0.11400
C72         C  0.44896265  0.30860892  0.41916694     0.03300
C73         C  0.44747160  0.33620012  0.44526566    -0.10800
H74         H  0.02533307  0.31596557  0.49207846     0.08900
H75         H  0.47506619  0.25817944  0.40419960     0.06400
H76         H  0.43089675  0.36001312  0.43969622     0.06200
O77         O  0.14732149  0.48192889  0.43358947    -0.85200
O78         O  0.12791426  0.01038889  0.50309519    -0.82200
C79         C  0.11817923  0.02353781  0.03235809     0.98300
O80         O  0.12530472  0.05743238  0.03402363    -0.82300
O81         O  0.19761601  0.07304283  0.50802417    -0.84900
C82         C  0.22356757  0.08839408  0.49168474     1.02800
O83         O  0.22409789  0.08390672  0.45773581    -0.77700
O84         O  0.19744848  0.01151848  0.44581988    -0.77900
C85         C  0.18249728  0.48185959  0.43083493     1.02700
O86         O  0.09390816  0.03920630  0.40604089    -0.85200
O87         O  0.07166292  0.06399053  0.47599635    -0.82300
C88         C  0.07176238  0.09859764  0.48381354     0.98300
O89         O  0.10156913  0.11576631  0.48406963    -0.82300
O90         O  0.17058508  0.13201913  0.45963165    -0.84900
C91         C  0.17456119  0.13484042  0.42514018     1.02800
O92         O  0.17329984  0.10716563  0.40500788    -0.77700
O93         O  0.15085469  0.03750848  0.38511859    -0.77900
C94         C  0.11571678  0.03515243  0.37986710     1.02700
Cr95       Cr  0.11193833  0.02717403  0.45518006     1.93700
Cr96       Cr  0.14880267  0.09279384  0.49360299     1.93200
Cr97       Cr  0.18378051  0.05920795  0.42578018     1.39100
O98         O  0.14630556  0.06165147  0.45657104    -1.22900
C99         C  0.03790199  0.12204027  0.48154453     0.80400
N100        N  0.02806517  0.14219263  0.00990812    -0.77900
C101        C  0.50143088  0.17423250  0.49539194     0.82800
N102        N  0.49503080  0.17740358  0.45939651    -0.77900
C103        C  0.50871487  0.15301378  0.43560749     0.82900
N104        N  0.02863357  0.12688635  0.44718434    -0.79600
C105        C  0.34173784  0.23901252  0.16164067     0.80400
N106        N  0.31338399  0.26115265  0.17486965    -0.77900
C107        C  0.29656141  0.25172932  0.20721165     0.82800
N108        N  0.30854091  0.22093881  0.22450950    -0.77900
C109        C  0.33617727  0.20007097  0.21112466     0.82900
N110        N  0.35167996  0.20933617  0.17994652    -0.79600
C111        C  0.21631159  0.41274567  0.36075669     0.80400
N112        N  0.19277550  0.42759497  0.38654961    -0.77900
C113        C  0.20544911  0.45626456  0.40777892     0.82800
N114        N  0.24079134  0.46767989  0.40322570    -0.77900
C115        C  0.26299676  0.45247499  0.37824676     0.82900
N116        N  0.25030603  0.42593601  0.35711722    -0.79600
C117        C  0.43406997  0.08269448  0.32964467     0.03300
C118        C  0.41724347  0.05274598  0.34533027    -0.12900
C119        C  0.39094576  0.03324143  0.32563984     0.00800
C120        C  0.38324007  0.04248483  0.28949790    -0.11400
C121        C  0.39781159  0.07468110  0.27508791     0.03300
C122        C  0.42507881  0.09296038  0.29497365    -0.10800
H123        H  0.42141307  0.04727657  0.37381740     0.08900
H124        H  0.36189524  0.02782419  0.27500243     0.06400
H125        H  0.43597631  0.11881259  0.28606956     0.06200
O126        O  0.47753847  0.19378676  0.05666251    -0.85200
O127        O  0.44827439  0.26552195  0.06882451    -0.82200
C128        C  0.43111947  0.29140122  0.08325440     0.98300
O129        O  0.39612813  0.29146000  0.07952986    -0.82300
O130        O  0.38795294  0.26766101  0.00649826    -0.84900
C131        C  0.36495521  0.25586203  0.48055153     1.02800
O132        O  0.37035812  0.22139352  0.47911284    -0.77700
O133        O  0.45146921  0.20767493  0.00648622    -0.77900
C134        C  0.47773274  0.19181102  0.02235057     1.02700
O135        O  0.42541875  0.16861947  0.10650671    -0.85200
O136        O  0.39692850  0.23758967  0.12543292    -0.82300
C137        C  0.36117649  0.24116098  0.12638384     0.98300
O138        O  0.34240322  0.23957880  0.09771824    -0.82300
O139        O  0.32887269  0.21593981  0.02757672    -0.84900
C140        C  0.32707833  0.18099369  0.02278217     1.02800
O141        O  0.35574066  0.16148761  0.02507236    -0.77700
O142        O  0.42651600  0.14560635  0.05113858    -0.77900
C143        C  0.42944111  0.14167945  0.08569918     1.02700
Cr144      Cr  0.43483859  0.21741076  0.08740882     1.93700
Cr145      Cr  0.36603472  0.25142272  0.05199742     1.93200
Cr146      Cr  0.40367931  0.18516759  0.01740241     1.39100
O147        O  0.39916285  0.21554994  0.05441728    -1.22900
C148        C  0.42878005  0.10429595  0.10040736     0.80400
N149        N  0.44666758  0.09074481  0.13085986    -0.77900
C150        C  0.43546413  0.05758516  0.14500490     0.82800
N151        N  0.40507020  0.04103058  0.13002955    -0.77900
C152        C  0.38895012  0.05478971  0.09970121     0.82900
N153        N  0.40159627  0.08532603  0.08532048    -0.79600
C154        C  0.10301854  0.42029312  0.24545198     0.80400
N155        N  0.13090818  0.44138678  0.23440837    -0.77900
C156        C  0.16541742  0.42824060  0.23098380     0.82800
N157        N  0.17343435  0.39441106  0.24288105    -0.77900
C158        C  0.14746688  0.37312573  0.25827441     0.82900
N159        N  0.11096866  0.38534699  0.25816292    -0.79600
C160        C  0.29144109  0.28478422  0.41175320     0.80400
N161        N  0.27842019  0.31419108  0.42870345    -0.77900
C162        C  0.29291137  0.32567277  0.45971807     0.82800
N163        N  0.32187292  0.30725950  0.47476479    -0.77900
C164        C  0.33577969  0.27638593  0.45898136     0.82900
N165        N  0.32047601  0.26501744  0.42660435    -0.79600
C166        C  0.26128277  0.44521241  0.05010737     0.03300
C167        C  0.25612847  0.43788645  0.08648563    -0.12900
C168        C  0.25297961  0.46665731  0.11068284     0.00800
C169        C  0.25815944  0.50217159  0.09923852    -0.11400
C170        C  0.26528008  0.50986651  0.06270567     0.03300
C171        C  0.26325058  0.48105551  0.03785761    -0.10800
H172        H  0.25263608  0.41006009  0.09561930     0.08900
H173        H  0.25655870  0.52333684  0.11953261     0.06400
H174        H  0.26700880  0.48565226  0.00936650     0.06200
O175        O  0.49072995  0.03709466  0.17962527    -0.85200
O176        O  0.00653013  0.01667734  0.25382483    -0.82200
C177        C  0.01822665  0.50273929  0.28156308     0.98300
O178        O  0.01273100  0.46840416  0.28269452    -0.82300
O179        O  0.43846854  0.45186309  0.25684900    -0.84900
C180        C  0.41261870  0.43724519  0.23898484     1.02800
O181        O  0.41194775  0.44364433  0.20527876    -0.77700
O182        O  0.43840713  0.01057561  0.18894315    -0.77900
C183        C  0.45566849  0.03625946  0.17448186     1.02700
O184        O  0.04203527  0.49337084  0.16093410    -0.85200
O185        O  0.06185135  0.47037527  0.23065579    -0.82300
C186        C  0.06540894  0.43577639  0.23654929     0.98300
O187        O  0.03787789  0.41529545  0.23291685    -0.82300
O188        O  0.46827304  0.39588119  0.20811243    -0.84900
C189        C  0.46338420  0.39331963  0.17376705     1.02800
O190        O  0.46404508  0.42118955  0.15413791    -0.77700
O191        O  0.48664366  0.49087618  0.13591879    -0.77900
C192        C  0.02184316  0.49439692  0.13319954     1.02700
Cr193      Cr  0.02107655  0.50429819  0.20836667     1.93700
Cr194      Cr  0.98810048  0.43532986  0.24266747     1.93200
Cr195      Cr  0.45219896  0.46905387  0.17456741     1.39100
O196        O  0.98858394  0.46793614  0.20704112    -1.22900
C197        C  0.27906471  0.36061826  0.47345001    -0.05200
C198        C  0.24049444  0.36782991  0.47450166    -0.02300
C199        C  0.22768511  0.40234432  0.48537443     0.02700
C200        C  0.27006899  0.41521495  0.02566632    -0.05200
C201        C  0.30650665  0.41182610  0.01270120    -0.02300
C202        C  0.31602653  0.38224829  0.99097329     0.02700
C203        C  0.21386519  0.33976042  0.46520051     0.37300
C204        C  0.33500854  0.43728409  0.02344974     0.37300
C205        C  0.35172123  0.38130906  0.97322084     0.35700
C206        C  0.18823878  0.40993309  0.48658894     0.35700
N207        N  0.37979248  0.38088027  0.95843729    -0.39100
N208        N  0.15673577  0.41571956  0.48720066    -0.39100
N209        N  0.35842412  0.45678486  0.03213892    -0.38500
N210        N  0.19248616  0.31759277  0.45764113    -0.38500
C211        C  0.23211096  0.46108386  0.14351313    -0.05200
C212        C  0.24936428  0.45395838  0.17689507    -0.02300
C213        C  0.22736925  0.44615630  0.20702849     0.02700
C214        C  0.18853707  0.44408323  0.20284087    -0.05200
C215        C  0.17172146  0.45248241  0.16907569    -0.02300
C216        C  0.19349866  0.46220379  0.14008242     0.02700
C217        C  0.28938240  0.45405400  0.17989329     0.37300
C218        C  0.13238031  0.44818308  0.16227339     0.37300
C219        C  0.17617486  0.47155405  0.10571763     0.35700
C220        C  0.24458443  0.44081640  0.24207766     0.35700
N221        N  0.16285817  0.47884884  0.07820294    -0.39100
N222        N  0.25878812  0.43734084  0.26995306    -0.39100
N223        N  0.10122985  0.44470792  0.15601647    -0.38500
N224        N  0.32133101  0.45404723  0.18227727    -0.38500
C225        C  0.35257530  0.04457508  0.08567041    -0.05200
C226        C  0.34983341  0.03703765  0.04824875    -0.02300
C227        C  0.31521730  0.03895969  0.03073370     0.02700
C228        C  0.28292838  0.04366556  0.05141597    -0.05200
C229        C  0.28750294  0.06240891  0.08447940    -0.02300
C230        C  0.32143059  0.05978943  0.10313410     0.02700
C231        C  0.38289755  0.02958008  0.02731700     0.37300
C232        C  0.25750376  0.08420121  0.09903329     0.37300
C233        C  0.32498942  0.07558804  0.13893668     0.35700
C234        C  0.31525712  0.53268330  0.99476499     0.35700
N235        N  0.32788169  0.08832101  0.16739670    -0.39100
N236        N  0.31412752  0.52729332  0.96400116    -0.39100
N237        N  0.23364365  0.10115885  0.11137901    -0.38500
N238        N  0.40916152  0.02359109  0.01059714    -0.38500
C239        C  0.36210497  0.01451432  0.34600780    -0.05200
C240        C  0.33109142  0.03503915  0.35713567    -0.02300
C241        C  0.29972050  0.01731798  0.36984432     0.02700
C242        C  0.29624401  0.47015977  0.36585830    -0.05200
C243        C  0.32776598  0.44861876  0.35841473    -0.02300
C244        C  0.35561460  0.46239186  0.33631384     0.02700
C245        C  0.33073018  0.07452122  0.35427459     0.37300
C246        C  0.33110697  0.41194349  0.37285752     0.37300
C247        C  0.39054891  0.44299108  0.33379129     0.35700
C248        C  0.26581226  0.03828803  0.37431327     0.35700
N249        N  0.41881924  0.42809306  0.33308852    -0.39100
N250        N  0.23881253  0.05512996  0.37712683    -0.39100
N251        N  0.33363853  0.38250954  0.38381168    -0.38500
N252        N  0.32962647  0.10596373  0.35224659    -0.38500
C253        C  0.37821459  0.09690881  0.24709339    -0.05200
C254        C  0.40015987  0.12130830  0.22702432    -0.02300
C255        C  0.38771652  0.15702803  0.22187065     0.02700
C256        C  0.35044771  0.16652870  0.22831702    -0.05200
C257        C  0.32695553  0.14118745  0.24463720    -0.02300
C258        C  0.34027015  0.10589620  0.25260107     0.02700
C259        C  0.43837276  0.11261978  0.21827283     0.37300
C260        C  0.29063753  0.15236223  0.25693888     0.37300
C261        C  0.31438523  0.07941450  0.26633126     0.35700
C262        C  0.41456548  0.18551010  0.21511049     0.35700
N263        N  0.29293164  0.05865459  0.27660536    -0.39100
N264        N  0.43539711  0.20890360  0.21101932    -0.39100
N265        N  0.26230146  0.16141337  0.26831670    -0.38500
N266        N  0.46941058  0.10774410  0.21239089    -0.38500
C267        C  0.49715757  0.15132892  0.39746878    -0.05200
C268        C  0.46117428  0.16253112  0.38731113    -0.02300
C269        C  0.44214073  0.14253329  0.36088096     0.02700
C270        C  0.45629690  0.10790194  0.35101908    -0.05200
C271        C  0.49242650  0.09800146  0.36057123    -0.02300
C272        C  0.51490656  0.12410695  0.37672936     0.02700
C273        C  0.44117109  0.18883432  0.40863026     0.37300
C274        C  0.50234623  0.05985539  0.36251258     0.37300
C275        C  0.05463243  0.12253619  0.37780381     0.35700
C276        C  0.40675748  0.15563463  0.34727215     0.35700
N277        N  0.08645909  0.11911298  0.37928185    -0.39100
N278        N  0.37903064  0.16685247  0.33593294    -0.39100
N279        N  0.00810959  0.03221929  0.36816110    -0.38500
N280        N  0.42568397  0.20847457  0.42773928    -0.38500
C281        C  0.44008950  0.32636853  0.30522192    -0.05200
C282        C  0.46186421  0.34893012  0.32691050    -0.02300
C283        C  0.45835763  0.34757273  0.36441546     0.02700
C284        C  0.44012981  0.31760506  0.38082640    -0.05200
C285        C  0.42360769  0.29113107  0.35812599    -0.02300
C286        C  0.42628776  0.29407036  0.32043417     0.02700
C287        C  0.48887292  0.37265290  0.31076840     0.37300
C288        C  0.39912447  0.26397828  0.37246887     0.37300
C289        C  0.41024094  0.26633895  0.29714378     0.35700
C290        C  0.47147022  0.37888066  0.38451449     0.35700
N291        N  0.39693445  0.24434509  0.27884938    -0.39100
N292        N  0.48039855  0.40571655  0.39844352    -0.39100
N293        N  0.37771803  0.24247799  0.38106765    -0.38500
N294        N  0.51167540  0.39098059  0.29906588    -0.38500
C295        C  0.04153746  0.26973149  0.43854440    -0.05200
C296        C  0.05596590  0.27583400  0.40347418    -0.02300
C297        C  0.09263798  0.26677485  0.39530877     0.02700
C298        C  0.11556677  0.25032303  0.42156179    -0.05200
C299        C  0.10244423  0.24671874  0.45720629    -0.02300
C300        C  0.06552457  0.25565256  0.46554092     0.02700
C301        C  0.03417731  0.29119072  0.37427842     0.37300
C302        C  0.12728106  0.23441856  0.48563946     0.37300
C303        C  0.05257077  0.25019214  0.50205663     0.35700
C304        C  0.10531945  0.27312206  0.35874637     0.35700
N305        N  0.04290614  0.24631802  0.53147227    -0.39100
N306        N  0.11349492  0.27808122  0.32907951    -0.39100
N307        N  0.14716255  0.22481877  0.50833384    -0.38500
N308        N  0.01986950  0.30185501  0.34841037    -0.38500
C309        C  0.02386901  0.42473556  0.02575742    -0.05200
C310        C  0.04842089  0.40169561  0.00689517    -0.02300
C311        C  0.01620146  0.39269640  0.47020033     0.02700
C312        C  0.98502380  0.37521303  0.48511422    -0.05200
C313        C  0.97568291  0.37809857  0.02110476    -0.02300
C314        C  0.98702575  0.41304783  0.03195910     0.02700
C315        C  0.08543379  0.41362412  0.99759345     0.37300
C316        C  0.43778642  0.36702058  0.02848273     0.37300
C317        C  0.96021498  0.43697619  0.04915183     0.35700
C318        C  0.03901638  0.37470230  0.44323890     0.35700
N319        N  0.43833701  0.45712284  0.06215648    -0.39100
N320        N  0.05772803  0.36106606  0.42184686    -0.39100
N321        N  0.40786129  0.35806702  0.03459802    -0.38500
N322        N  0.07542392  0.46215122  0.44440891    -0.38500
C323        C  0.03763689  0.28866149  0.16218293    -0.05200
C324        C  0.03858077  0.25193289  0.17227173    -0.02300
C325        C  0.06949822  0.23822698  0.19092761     0.02700
C326        C  0.10051931  0.26108603  0.19760015    -0.05200
C327        C  0.10026281  0.29735461  0.18429864    -0.02300
C328        C  0.06897805  0.31079932  0.16637286     0.02700
C329        C  0.50841562  0.22738173  0.16244120     0.37300
C330        C  0.13342357  0.31956919  0.18475855     0.37300
C331        C  0.07001999  0.34630711  0.14903157     0.35700
C332        C  0.06978884  0.19987589  0.20055046     0.35700
N333        N  0.07055667  0.37413870  0.13445390    -0.39100
N334        N  0.06910221  0.16929186  0.20806491    -0.39100
N335        N  0.15994231  0.33693587  0.18278530    -0.38500
N336        N  0.48574650  0.20762682  0.15232783    -0.38500
C337        C  0.15977376  0.15531543  0.25384703    -0.05200
C338        C  0.17373085  0.12090498  0.24049152    -0.02300
C339        C  0.15526089  0.08809895  0.24902703     0.02700
C340        C  0.12050468  0.08951500  0.26555508    -0.05200
C341        C  0.10622978  0.12307172  0.27662420    -0.02300
C342        C  0.12919318  0.15331787  0.27738944     0.02700
C343        C  0.20670064  0.11714033  0.21883823     0.37300
C344        C  0.06809435  0.12647961  0.28806836     0.37300
C345        C  0.12318327  0.17940459  0.30595156     0.35700
C346        C  0.17145191  0.05285675  0.24018523     0.35700
N347        N  0.11654847  0.19854219  0.32982341    -0.39100
N348        N  0.18457052  0.02487050  0.23320218    -0.39100
N349        N  0.03722308  0.12968593  0.29546848    -0.38500
N350        N  0.23282480  0.11259473  0.20145613    -0.38500
C351        C  0.20189509  0.20737126  0.14562514    -0.05200
C352        C  0.22020441  0.23210066  0.12296265    -0.02300
C353        C  0.22392726  0.22395002  0.08629404     0.02700
C354        C  0.21019526  0.19048412  0.07252801    -0.05200
C355        C  0.18496377  0.17074250  0.09303684    -0.02300
C356        C  0.18204492  0.17790384  0.12997279     0.02700
C357        C  0.23245157  0.26720992  0.13661457     0.37300
C358        C  0.16027893  0.14497882  0.07583827     0.37300
C359        C  0.15630116  0.15641336  0.15081513     0.35700
C360        C  0.24150476  0.25022277  0.06276891     0.35700
N361        N  0.13536212  0.13872831  0.16629098    -0.39100
N362        N  0.25571612  0.27125847  0.04434620    -0.39100
N363        N  0.13966837  0.12518756  0.06225366    -0.38500
N364        N  0.24129348  0.29572183  0.14682272    -0.38500
C365        C  0.28474314  0.16769801  0.52159941     0.80400
N366        N  0.25829441  0.18790076  0.53686444    -0.77900
C367        C  0.22341493  0.17669854  0.53980653     0.82800
N368        N  0.21422587  0.14367807  0.52618773    -0.77900
C369        C  0.23931919  0.12250216  0.50849544     0.82900
N370        N  0.27568582  0.13423120  0.50650910    -0.79600
C371        C  0.09997416  0.03098002  0.84481726     0.80400
N372        N  0.11635495  0.05473474  0.82277560    -0.77900
C373        C  0.10242583  0.06255320  0.79007932     0.82800
N374        N  0.07115748  0.04626463  0.77832152    -0.77900
C375        C  0.05405605  0.02058371  0.79858434     0.82900
N376        N  0.06837867  0.01299594  0.83277816    -0.79600
C377        C  0.45965121  0.35091282  0.66226987     0.80400
N378        N  0.44055197  0.34321693  0.63062635    -0.77900
C379        C  0.44652744  0.31002315  0.61397748     0.82800
N380        N  0.47289724  0.28736862  0.62743193    -0.77900
C381        C  0.99012412  0.29571593  0.65906428     0.82900
N382        N  0.98245958  0.32669348  0.67667071    -0.79600
C383        C  0.18641499  0.22010070  0.67809231     0.03300
C384        C  0.19268239  0.19642069  0.70713788    -0.11700
C385        C  0.16495850  0.19181527  0.73335375     0.00800
C386        C  0.13508254  0.21689499  0.73283158    -0.11400
C387        C  0.13011801  0.24129100  0.70475135     0.03300
C388        C  0.15700921  0.24426107  0.67872247    -0.10800
H389        H  0.21640672  0.17881709  0.70572207     0.08900
H390        H  0.11157193  0.21400710  0.75017668     0.06400
H391        H  0.15086435  0.25979157  0.65447866     0.06200
O392        O  0.26599254  0.30830621  0.73058570    -0.85200
O393        O  0.19275725  0.32263779  0.75721338    -0.82200
C394        C  0.16727440  0.33813581  0.77418531     0.98300
O395        O  0.16686085  0.33264644  0.80803464    -0.82300
O396        O  0.19359620  0.25828552  0.82094017    -0.84900
C397        C  0.21160084  0.23281084  0.83573295     1.02800
O398        O  0.24626233  0.23234722  0.83026807    -0.77700
O399        O  0.25598989  0.25728978  0.75744208    -0.77900
C400        C  0.26982883  0.27360690  0.73108055     1.02700
O401        O  0.29057521  0.36183687  0.78087096    -0.85200
O402        O  0.22128520  0.38133956  0.80626986    -0.82300
C403        C  0.21763933  0.38286411  0.84092810     0.98300
O404        O  0.21897538  0.35432752  0.85950654    -0.82300
O405        O  0.24438311  0.28595552  0.87717982    -0.84900
C406        C  0.27989750  0.28301781  0.87907098     1.02800
O407        O  0.29930374  0.28400763  0.85106442    -0.77700
O408        O  0.31520677  0.30650767  0.78161887    -0.77900
C409        C  0.31827022  0.34128375  0.77796639     1.02700
Cr410      Cr  0.24172937  0.34124342  0.77093961     1.93700
Cr411      Cr  0.20802942  0.30682775  0.83890938     1.93200
Cr412      Cr  0.27679189  0.27236831  0.80428351     1.39100
O413        O  0.24395627  0.30860806  0.80646078    -1.22900
C414        C  0.03797705  0.49044807  0.59394403     0.80400
N415        N  0.01752658  0.47333316  0.56882365    -0.77900
C416        C  0.02767450  0.47095353  0.53421120     0.82800
N417        N  0.05999800  0.48660444  0.52434374    -0.77900
C418        C  0.08259121  0.00818973  0.54811566     0.82900
N419        N  0.07004517  0.01359634  0.58305418    -0.79600
C420        C  0.17970047  0.16994428  0.91159910     0.80400
N421        N  0.16009168  0.19475072  0.93000267    -0.77900
C422        C  0.15636515  0.22929831  0.91897018     0.82800
N423        N  0.17372281  0.23982842  0.88863237    -0.77900
C424        C  0.19496692  0.21633036  0.86918109     0.82900
N425        N  0.19754349  0.18027031  0.88021493    -0.79600
C426        C  0.35574739  0.35644951  0.77444199     0.80400
N427        N  0.38114937  0.33691764  0.79218834    -0.77900
C428        C  0.41615560  0.34744042  0.79609601     0.82800
N429        N  0.42641232  0.37963645  0.78109510    -0.77900
C430        C  0.40196225  0.40028201  0.76124236     0.82900
N431        N  0.36565904  0.38885416  0.75828206    -0.79600
C432        C  0.98740381  0.31965877  0.98793772     0.03300
C433        C  0.00908812  0.28833759  0.99209006    -0.12900
C434        C  0.01042349  0.26237801  0.96417490     0.00800
C435        C  0.48103223  0.26217969  0.93976598    -0.11400
C436        C  0.46081345  0.29440893  0.93360798     0.03300
C437        C  0.46111876  0.32169647  0.96002173    -0.10800
H438        H  0.03091182  0.28950950  0.01214390     0.08900
H439        H  0.48094805  0.24097869  0.91941551     0.06400
H440        H  0.44704507  0.34722855  0.95443703     0.06200
O441        O  0.14477466  0.48392066  0.93258270    -0.85200
O442        O  0.13234366  0.00636866  0.00646830    -0.82200
C443        C  0.11427838  0.02708411  0.52943532     0.98300
O444        O  0.12170463  0.06083502  0.53204054    -0.82300
O445        O  0.20045456  0.07106749  0.00850519    -0.84900
C446        C  0.22622346  0.08606769  0.99147189     1.02800
O447        O  0.22610285  0.08147937  0.95747400    -0.77700
O448        O  0.20097087  0.00881572  0.94477599    -0.77900
C449        C  0.18022764  0.48283248  0.93267221     1.02700
O450        O  0.09530404  0.03296816  0.90952258    -0.85200
O451        O  0.07523047  0.05788472  0.97953921    -0.82300
C452        C  0.07355455  0.09243891  0.98699784     0.98300
O453        O  0.10226368  0.11149433  0.98592585    -0.82300
O454        O  0.17195181  0.12901977  0.96080873    -0.84900
C455        C  0.17611046  0.13246202  0.92641601     1.02800
O456        O  0.17390146  0.10508568  0.90587888    -0.77700
O457        O  0.15124519  0.03469810  0.88630583    -0.77900
C458        C  0.11599997  0.03116482  0.88233613     1.02700
Cr459      Cr  0.11533423  0.02227033  0.95823003     1.93700
Cr460      Cr  0.15090475  0.08962303  0.99480987     1.93200
Cr461      Cr  0.18528970  0.05661690  0.92609747     1.39100
O462        O  0.14867766  0.05791012  0.95815661    -1.22900
C463        C  0.03690752  0.11138682  0.98949719     0.80400
N464        N  0.02454305  0.14685038  0.50706713    -0.77900
C465        C  0.49668158  0.16195423  0.00088242     0.82800
N466        N  0.47795722  0.15275429  0.97032409    -0.77900
C467        C  0.48657473  0.12236139  0.95177786     0.82900
N468        N  0.01492192  0.10218744  0.96206771    -0.79600
C469        C  0.34440576  0.24114389  0.66460323     0.80400
N470        N  0.31509858  0.26202157  0.67770330    -0.77900
C471        C  0.29873549  0.25220580  0.71006744     0.82800
N472        N  0.31135622  0.22165206  0.72721986    -0.77900
C473        C  0.34003576  0.20204231  0.71410311     0.82900
N474        N  0.35596853  0.21214029  0.68328846    -0.79600
C475        C  0.22006417  0.41790353  0.86092881     0.80400
N476        N  0.19463396  0.43083942  0.88613764    -0.77900
C477        C  0.20488086  0.45893304  0.90922274     0.82800
N478        N  0.23995759  0.47152411  0.90719939    -0.77900
C479        C  0.26410813  0.45917280  0.88249197     0.82900
N480        N  0.25380964  0.43299394  0.85926563    -0.79600
C481        C  0.42394619  0.06555516  0.82360523     0.03300
C482        C  0.40849627  0.03188010  0.82937730    -0.12900
C483        C  0.38349952  0.01803203  0.80445788     0.00800
C484        C  0.37935065  0.03459522  0.77042579    -0.11400
C485        C  0.39497310  0.06922565  0.76455978     0.03300
C486        C  0.41768162  0.08395598  0.79180822    -0.10800
H487        H  0.41051831  0.01998888  0.85613644     0.08900
H488        H  0.36007339  0.02296321  0.75128766     0.06400
H489        H  0.42746612  0.11177264  0.79060573     0.06200
O490        O  0.47507505  0.19945884  0.55251903    -0.85200
O491        O  0.44342668  0.27060715  0.56504590    -0.82200
C492        C  0.42659856  0.29512301  0.58190746     0.98300
O493        O  0.39157846  0.29474266  0.57967278    -0.82300
O494        O  0.37848765  0.27233157  0.50715838    -0.84900
C495        C  0.37413809  0.25224041  0.97943812     1.02800
O496        O  0.37806339  0.21785914  0.97797201    -0.77700
O497        O  0.44633529  0.20905307  0.50223329    -0.77900
C498        C  0.47454184  0.19651513  0.51825681     1.02700
O499        O  0.42673860  0.17334008  0.60521100    -0.85200
O500        O  0.39737478  0.24103753  0.62532454    -0.82300
C501        C  0.36173632  0.24321489  0.62833246     0.98300
O502        O  0.34134510  0.24090927  0.60078993    -0.82300
O503        O  0.32352099  0.21891125  0.53114754    -0.84900
C504        C  0.32198779  0.18412768  0.52616802     1.02800
O505        O  0.35094179  0.16494645  0.52785226    -0.77700
O506        O  0.42403864  0.15023248  0.54994853    -0.77900
C507        C  0.43002381  0.14654258  0.58420155     1.02700
Cr508      Cr  0.43333529  0.22214847  0.58504875     1.93700
Cr509      Cr  0.36122007  0.25434693  0.55382047     1.93200
Cr510      Cr  0.39850561  0.18861731  0.51717977     1.39100
O511        O  0.39593039  0.21950448  0.55387987    -1.22900
C512        C  0.43281043  0.10901376  0.59837143     0.80400
N513        N  0.44755127  0.09711835  0.63099395    -0.77900
C514        C  0.43637892  0.06363564  0.64435170     0.82800
N515        N  0.40771745  0.04623389  0.62728577    -0.77900
C516        C  0.39506580  0.05828988  0.59480321     0.82900
N517        N  0.40940235  0.08791783  0.58040059    -0.79600
C518        C  0.10692347  0.41863347  0.74388298     0.80400
N519        N  0.13317304  0.43705755  0.72645381    -0.77900
C520        C  0.16633226  0.42219334  0.71988603     0.82800
N521        N  0.17562763  0.39019184  0.73547031    -0.77900
C522        C  0.15171001  0.37241209  0.75733418     0.82900
N523        N  0.11584216  0.38561104  0.76010494    -0.79600
C524        C  0.29800681  0.28517922  0.91477330     0.80400
N525        N  0.28553156  0.31310321  0.93479113    -0.77900
C526        C  0.30194094  0.32187604  0.96594831     0.82800
N527        N  0.33132914  0.30251810  0.97792458    -0.77900
C528        C  0.34458818  0.27341223  0.95939757     0.82900
N529        N  0.32799537  0.26448821  0.92677663    -0.79600
C530        C  0.24104495  0.45656466  0.52316904     0.03300
C531        C  0.22940961  0.44370994  0.55628912    -0.12900
C532        C  0.22703893  0.46709760  0.58540473     0.00800
C533        C  0.23795341  0.50308480  0.58225762    -0.11400
C534        C  0.25361588  0.51594502  0.55000775     0.03300
C535        C  0.25068719  0.49322126  0.51925736    -0.10800
H536        H  0.22356795  0.41496370  0.55993011     0.08900
H537        H  0.23751026  0.51905772  0.60669509     0.06400
H538        H  0.26006434  0.50167123  0.49317454     0.06200
O539        O  0.49002332  0.04284763  0.68040648    -0.85200
O540        O  0.00626714  0.01940318  0.75422221    -0.82200
C541        C  0.02361649  0.50109266  0.77972572     0.98300
O542        O  0.01767159  0.46700937  0.78234288    -0.82300
O543        O  0.44374040  0.44954651  0.75942063    -0.84900
C544        C  0.41769839  0.43376856  0.74330014     1.02800
O545        O  0.41554953  0.43852379  0.70924659    -0.77700
O546        O  0.43717984  0.01695759  0.68857045    -0.77900
C547        C  0.45505610  0.04269469  0.67487237     1.02700
O548        O  0.04423342  0.48648390  0.65826434    -0.85200
O549        O  0.06536665  0.46724902  0.72869379    -0.82300
C550        C  0.06904540  0.43317928  0.73650694     0.98300
O551        O  0.04161399  0.41227951  0.73471646    -0.82300
O552        O  0.47084276  0.39105900  0.71206166    -0.84900
C553        C  0.46443862  0.38751507  0.67799272     1.02800
O554        O  0.46623995  0.41436524  0.65727235    -0.77700
O555        O  0.48815557  0.48255671  0.63503791    -0.77900
C556        C  0.02298896  0.48713538  0.63122249     1.02700
Cr557      Cr  0.02453209  0.49990388  0.70595231     1.93700
Cr558      Cr  0.99227398  0.43268487  0.74464707     1.93200
Cr559      Cr  0.45471053  0.46268456  0.67563029     1.39100
O560        O  0.99180159  0.46379280  0.70751724    -1.22900
C561        C  0.29007326  0.35459468  0.98477337    -0.05200
C562        C  0.25305242  0.35870723  0.99594132    -0.02300
C563        C  0.24305070  0.38917506  0.01667419     0.02700
C564        C  0.25322690  0.42865330  0.49745412    -0.05200
C565        C  0.29154213  0.42190235  0.49421186    -0.02300
C566        C  0.30405231  0.38891159  0.48002321     0.02700
C567        C  0.22540745  0.33184444  0.98606207     0.37300
C568        C  0.31888001  0.44585565  0.50998353     0.37300
C569        C  0.34247497  0.38529641  0.47022827     0.35700
C570        C  0.20542110  0.39336264  0.02942082     0.35700
N571        N  0.37299273  0.38398164  0.46147790    -0.39100
N572        N  0.17550076  0.39654208  0.03988519    -0.39100
N573        N  0.34242551  0.46258599  0.52299382    -0.38500
N574        N  0.20332694  0.31061585  0.97779053    -0.38500
C575        C  0.21334640  0.45345209  0.61973140    -0.05200
C576        C  0.23607704  0.45307020  0.65098745    -0.02300
C577        C  0.22112243  0.44235578  0.68422533     0.02700
C578        C  0.18357832  0.43269989  0.68586784    -0.05200
C579        C  0.16130434  0.43274658  0.65411010    -0.02300
C580        C  0.17645165  0.44213878  0.62113459     0.02700
C581        C  0.27472776  0.46324113  0.64874629     0.37300
C582        C  0.12204353  0.42494516  0.65490615     0.37300
C583        C  0.15358343  0.44060849  0.58865664     0.35700
C584        C  0.24356699  0.44314469  0.71682371     0.35700
N585        N  0.13525080  0.43854095  0.56302357    -0.39100
N586        N  0.26138655  0.44406348  0.74289352    -0.39100
N587        N  0.09045760  0.42041333  0.65525273    -0.38500
N588        N  0.30552664  0.47140397  0.64679017    -0.38500
C589        C  0.35804010  0.05143541  0.58061468    -0.05200
C590        C  0.35426590  0.04267865  0.54342253    -0.02300
C591        C  0.31885501  0.04402706  0.52744525     0.02700
C592        C  0.28808110  0.04870402  0.55001925    -0.05200
C593        C  0.29409266  0.07299364  0.57869231    -0.02300
C594        C  0.32827877  0.07075921  0.59696105     0.02700
C595        C  0.38659210  0.03643277  0.52112697     0.37300
C596        C  0.26365071  0.09453247  0.59255365     0.37300
C597        C  0.33392445  0.09194101  0.62955647     0.35700
C598        C  0.31336779  0.54179270  0.49296324     0.35700
N599        N  0.33858984  0.10962690  0.65501891    -0.39100
N600        N  0.31249183  0.54233183  0.46174079    -0.39100
N601        N  0.23937759  0.11159784  0.60397222    -0.38500
N602        N  0.41237049  0.03181812  0.50331663    -0.38500
C603        C  0.35226848  0.99972767  0.82147417    -0.05200
C604        C  0.32141126  0.02149481  0.83143417    -0.02300
C605        C  0.29420928  0.00737743  0.85377614     0.02700
C606        C  0.29939306  0.47771875  0.87707139    -0.05200
C607        C  0.33195158  0.45737037  0.86977852    -0.02300
C608        C  0.36344020  0.47530111  0.85682321     0.02700
C609        C  0.31853288  0.05964106  0.82162405     0.37300
C610        C  0.33266900  0.41809719  0.87449590     0.37300
C611        C  0.39708895  0.45523147  0.84899453     0.35700
C612        C  0.26132259  0.02915103  0.86129143     0.35700
N613        N  0.42428892  0.43949198  0.84337835    -0.39100
N614        N  0.23525984  0.04668063  0.86694495    -0.39100
N615        N  0.33312955  0.38676315  0.87814746    -0.38500
N616        N  0.31462442  0.09023001  0.81512518    -0.38500
C617        C  0.38024314  0.09580108  0.73751993    -0.05200
C618        C  0.40435551  0.12423150  0.72734385    -0.02300
C619        C  0.39139500  0.16024017  0.72743521     0.02700
C620        C  0.35325436  0.16764890  0.72987019    -0.05200
C621        C  0.32848117  0.13907348  0.73609358    -0.02300
C622        C  0.34160539  0.10290744  0.73711418     0.02700
C623        C  0.44368434  0.11739386  0.72278746     0.37300
C624        C  0.29026929  0.14693075  0.74475746     0.37300
C625        C  0.31496966  0.07354170  0.73574592     0.35700
C626        C  0.41739785  0.19025376  0.72911026     0.35700
N627        N  0.29319757  0.05056134  0.73415646    -0.39100
N628        N  0.43754124  0.21453022  0.73172186    -0.39100
N629        N  0.26030034  0.15308635  0.75372658    -0.38500
N630        N  0.47525231  0.11294318  0.71990995    -0.38500
C631        C  0.47101860  0.11439849  0.91614383    -0.05200
C632        C  0.43440364  0.12329384  0.90633572    -0.02300
C633        C  0.42119909  0.11223675  0.87244126     0.02700
C634        C  0.44071606  0.08454885  0.85382441    -0.05200
C635        C  0.47538566  0.07296706  0.86613557    -0.02300
C636        C  0.49282780  0.09348277  0.89230602     0.02700
C637        C  0.40896683  0.13896557  0.93194703     0.37300
C638        C  0.48784311  0.03594863  0.86013529     0.37300
C639        C  0.03379980  0.09621581  0.89181808     0.35700
C640        C  0.38740449  0.12824640  0.85817152     0.35700
N641        N  0.06557355  0.09961911  0.89284466    -0.39100
N642        N  0.36122868  0.14292219  0.84720902    -0.39100
N643        N  0.99591748  0.00607462  0.85820667    -0.38500
N644        N  0.38754230  0.14965902  0.95241391    -0.38500
C645        C  0.43827085  0.32716348  0.82372986    -0.05200
C646        C  0.46544936  0.34526278  0.84395891    -0.02300
C647        C  0.47193731  0.33527845  0.88005224     0.02700
C648        C  0.45288270  0.30522902  0.89555292    -0.05200
C649        C  0.43102441  0.28303356  0.87289319    -0.02300
C650        C  0.42477667  0.29326967  0.83677231     0.02700
C651        C  0.48769164  0.37333503  0.82749030     0.37300
C652        C  0.41433702  0.25002913  0.88663693     0.37300
C653        C  0.40372708  0.26908990  0.81331662     0.35700
C654        C  0.49892534  0.35619019  0.90035959     0.35700
N655        N  0.38664239  0.24991477  0.79485971    -0.39100
N656        N  0.52025611  0.37427766  0.91523816    -0.39100
N657        N  0.40120957  0.22342000  0.89708431    -0.38500
N658        N  0.50617285  0.39522713  0.81449838    -0.38500
C659        C  0.04830231  0.25086933  0.95203099    -0.05200
C660        C  0.06047250  0.26017974  0.91656229    -0.02300
C661        C  0.09823829  0.26309936  0.90913582     0.02700
C662        C  0.12443240  0.24947939  0.93367445    -0.05200
C663        C  0.11324221  0.24111812  0.96899712    -0.02300
C664        C  0.07553063  0.24078226  0.97803255     0.02700
C665        C  0.03574372  0.26421274  0.88579908     0.37300
C666        C  0.14112996  0.23284319  0.99601155     0.37300
C667        C  0.06525314  0.22924640  0.01398983     0.35700
C668        C  0.10967559  0.27998956  0.87574321     0.35700
N669        N  0.05800656  0.22050117  0.04304826    -0.39100
N670        N  0.11761887  0.29393162  0.84901005    -0.39100
N671        N  0.16364977  0.22663579  0.01742892    -0.38500
N672        N  0.01798561  0.26608108  0.85973874    -0.38500
C673        C  0.00753363  0.44432225  0.51069708    -0.05200
C674        C  0.02582214  0.42790571  0.48138905    -0.02300
C675        C  0.03731049  0.36655155  0.99674957     0.02700
C676        C  0.00069001  0.35453351  0.00363144    -0.05200
C677        C  0.96293838  0.39400891  0.51017003    -0.02300
C678        C  0.97364967  0.42881811  0.52244722     0.02700
C679        C  0.05373219  0.44721604  0.46150749     0.37300
C680        C  0.42982409  0.37751024  0.52405764     0.37300
C681        C  0.94959003  0.44831157  0.54721281     0.35700
C682        C  0.06422361  0.34379337  0.97829833     0.35700
N683        N  0.43025325  0.46428349  0.56638424    -0.39100
N684        N  0.08713427  0.32728786  0.96389094    -0.39100
N685        N  0.40342474  0.36453809  0.53576080    -0.38500
N686        N  0.11473384  0.42285043  0.98937635    -0.38500
C687        C  0.02577695  0.27939366  0.66671028    -0.05200
C688        C  0.02908150  0.24301237  0.67697526    -0.02300
C689        C  0.06269076  0.23059265  0.69155318     0.02700
C690        C  0.09293693  0.25522914  0.69551912    -0.05200
C691        C  0.08947837  0.29140573  0.68282782    -0.02300
C692        C  0.05662167  0.30247292  0.66640585     0.02700
C693        C  0.49942022  0.21753881  0.67032015     0.37300
C694        C  0.12036034  0.31651036  0.68405122     0.37300
C695        C  0.05507354  0.33595418  0.64559297     0.35700
C696        C  0.06563987  0.19230907  0.70112121     0.35700
N697        N  0.05265299  0.36148671  0.62748411    -0.39100
N698        N  0.06694331  0.16185543  0.70916948    -0.39100
N699        N  0.14538109  0.33597711  0.68348483    -0.38500
N700        N  0.47598486  0.19710284  0.66403469    -0.38500
C701        C  0.15927560  0.15642021  0.75335395    -0.05200
C702        C  0.16635389  0.12167622  0.73676303    -0.02300
C703        C  0.14564267  0.09087400  0.74688053     0.02700
C704        C  0.11750892  0.09452446  0.77238445    -0.05200
C705        C  0.11120738  0.12808919  0.78923646    -0.02300
C706        C  0.13527152  0.15703818  0.78354047     0.02700
C707        C  0.19466323  0.11604030  0.70983255     0.37300
C708        C  0.07764880  0.13396095  0.80978258     0.37300
C709        C  0.13176832  0.18859767  0.80688812     0.35700
C710        C  0.15181230  0.05570259  0.72978383     0.35700
N711        N  0.12600776  0.21368281  0.82495173    -0.39100
N712        N  0.15642101  0.02782536  0.71578316    -0.39100
N713        N  0.05016737  0.13981373  0.82454767    -0.38500
N714        N  0.21717673  0.11021057  0.68848836    -0.38500
C715        C  0.19603036  0.20929392  0.64119678    -0.05200
C716        C  0.21388970  0.23469768  0.61885534    -0.02300
C717        C  0.21459850  0.22878235  0.58148714     0.02700
C718        C  0.20089338  0.19572993  0.56707659    -0.05200
C719        C  0.17651684  0.17522060  0.58772913    -0.02300
C720        C  0.17497686  0.18093900  0.62499077     0.02700
C721        C  0.22945957  0.26783129  0.63396370     0.37300
C722        C  0.15111448  0.15034037  0.57034526     0.37300
C723        C  0.14932208  0.15926476  0.64569534     0.35700
C724        C  0.22935233  0.25639489  0.55767871     0.35700
N725        N  0.12838849  0.14144596  0.66100403    -0.39100
N726        N  0.24074722  0.27862267  0.53873342    -0.39100
N727        N  0.12967379  0.13129063  0.55696649    -0.38500
N728        N  0.24142583  0.29459302  0.64567833    -0.38500
C729        C  0.28522902  0.66393022  0.02532765     0.80400
N730        N  0.25898512  0.68406864  0.04087032    -0.77900
C731        C  0.22383659  0.67360958  0.04301284     0.82800
N732        N  0.21413752  0.64111641  0.02844603    -0.77900
C733        C  0.23918338  0.61982447  0.01068797     0.82900
N734        N  0.27579251  0.63100547  0.00933744    -0.79600
C735        C  0.09726948  0.53203253  0.34564505     0.80400
N736        N  0.11273005  0.55659187  0.32392716    -0.77900
C737        C  0.09807826  0.56486166  0.29169984     0.82800
N738        N  0.06705630  0.54806042  0.27995351    -0.77900
C739        C  0.05088613  0.52152982  0.29995799     0.82900
N740        N  0.06591824  0.51358845  0.33375904    -0.79600
C741        C  0.45855165  0.84950367  0.16358696     0.80400
N742        N  0.44073501  0.84209875  0.13116537    -0.77900
C743        C  0.44529709  0.80810708  0.11568071     0.82800
N744        N  0.46962247  0.78437849  0.13083017    -0.77900
C745        C  0.98745037  0.79247032  0.16054859     0.82900
N746        N  0.98044238  0.82389375  0.17784192    -0.79600
C747        C  0.18429797  0.72059102  0.18008991     0.03300
C748        C  0.19053923  0.69731326  0.20937022    -0.11700
C749        C  0.16317706  0.69363575  0.23599032     0.00800
C750        C  0.13434649  0.71992804  0.23610444    -0.11400
C751        C  0.12894311  0.74341466  0.20724339     0.03300
C752        C  0.15545038  0.74536883  0.18069048    -0.10800
H753        H  0.21377818  0.67915735  0.20782996     0.08900
H754        H  0.11131720  0.71816452  0.25419643     0.06400
H755        H  0.14924367  0.76031936  0.15611737     0.06200
O756        O  0.26666604  0.80669590  0.23233032    -0.85200
O757        O  0.19287381  0.82191545  0.25811770    -0.82200
C758        C  0.16720516  0.83737413  0.27495182     0.98300
O759        O  0.16678928  0.83238055  0.30889241    -0.82300
O760        O  0.19302863  0.75829204  0.32351968    -0.84900
C761        C  0.21109545  0.73302432  0.33859636     1.02800
O762        O  0.24575805  0.73234253  0.33290422    -0.77700
O763        O  0.25712213  0.75582147  0.25969037    -0.77900
C764        C  0.27102740  0.77202116  0.23327815     1.02700
O765        O  0.29073219  0.86107343  0.28199804    -0.85200
O766        O  0.22144249  0.88105912  0.30660283    -0.82300
C767        C  0.21799548  0.88316859  0.34125741     0.98300
O768        O  0.21896150  0.85490013  0.36022559    -0.82300
O769        O  0.24359975  0.78670905  0.37932992    -0.84900
C770        C  0.27904883  0.78343653  0.38136631     1.02800
O771        O  0.29858699  0.78425935  0.35347490    -0.77700
O772        O  0.31556596  0.80589863  0.28399320    -0.77900
C773        C  0.31851906  0.84062022  0.27950343     1.02700
Cr774      Cr  0.24196044  0.84032555  0.27202059     1.93700
Cr775      Cr  0.20771585  0.80709980  0.34043160     1.93200
Cr776      Cr  0.27678103  0.77193778  0.30667376     1.39100
O777        O  0.24377323  0.80811329  0.30796734    -1.22900
C778        C  0.04107204  0.99040107  0.09512328     0.80400
N779        N  0.02108032  0.97293917  0.07001015    -0.77900
C780        C  0.03072261  0.97152658  0.03527496     0.82800
N781        N  0.06228390  0.98817393  0.02517309    -0.77900
C782        C  0.08207764  0.50531506  0.05009141     0.82900
N783        N  0.06833813  0.51316914  0.08414400    -0.79600
C784        C  0.17849004  0.67054918  0.41445253     0.80400
N785        N  0.15965031  0.69561734  0.43338751    -0.77900
C786        C  0.15658524  0.73034456  0.42261412     0.82800
N787        N  0.17407744  0.74073882  0.39223346    -0.77900
C788        C  0.19462414  0.71694577  0.37238744     0.82900
N789        N  0.19627066  0.68077131  0.38302775    -0.79600
C790        C  0.35590877  0.85602723  0.27496654     0.80400
N791        N  0.38195396  0.83667217  0.29198890    -0.77900
C792        C  0.41707429  0.84729867  0.29464090     0.82800
N793        N  0.42675933  0.87938648  0.27920799    -0.77900
C794        C  0.40166219  0.89991822  0.26010351     0.82900
N795        N  0.36526089  0.88841638  0.25833401    -0.79600
C796        C  0.98885726  0.82396783  0.48524559     0.03300
C797        C  0.00955483  0.79239858  0.49164250    -0.12900
C798        C  0.01039918  0.76464612  0.46542846     0.00800
C799        C  0.48033617  0.76379819  0.43994758    -0.11400
C800        C  0.46227230  0.79661190  0.43136248     0.03300
C801        C  0.46358982  0.82550015  0.45595621    -0.10800
H802        H  0.03094469  0.79403604  0.51210090     0.08900
H803        H  0.47936912  0.74135354  0.42098512     0.06400
H804        H  0.45112318  0.85137360  0.44854989     0.06200
O805        O  0.14573665  0.98577719  0.43180122    -0.85200
O806        O  0.13080114  0.50499164  0.50607333    -0.82200
C807        C  0.11289031  0.52463788  0.03014667     0.98300
O808        O  0.12098936  0.55829388  0.03293781    -0.82300
O809        O  0.19985218  0.57037942  0.50898215    -0.84900
C810        C  0.22536970  0.58556558  0.49161597     1.02800
O811        O  0.22463214  0.58132548  0.45755780    -0.77700
O812        O  0.19944721  0.50891916  0.44343540    -0.77900
C813        C  0.18124201  0.98497462  0.43138252     1.02700
O814        O  0.09343953  0.53330983  0.41016282    -0.85200
O815        O  0.07402753  0.55715791  0.48034082    -0.82300
C816        C  0.07242313  0.59153404  0.48847662     0.98300
O817        O  0.10112924  0.61057714  0.48795869    -0.82300
O818        O  0.17044808  0.62873272  0.46283303    -0.84900
C819        C  0.17422707  0.63288345  0.42851128     1.02800
O820        O  0.17151864  0.60599453  0.40738825    -0.77700
O821        O  0.14903952  0.53582255  0.38639347    -0.77900
C822        C  0.11381857  0.53192706  0.38280818     1.02700
Cr823      Cr  0.11382458  0.52187258  0.45834272     1.93700
Cr824      Cr  0.14983320  0.58858539  0.49607918     1.93200
Cr825      Cr  0.18339365  0.55708011  0.42622055     1.39100
O826        O  0.14728660  0.55750214  0.45881603    -1.22900
C827        C  0.03576098  0.61021778  0.49173802     0.80400
N828        N  0.02514026  0.64533548  0.00751590    -0.77900
C829        C  0.49597061  0.66060726  0.50242922     0.82800
N830        N  0.47579683  0.64966788  0.47335856    -0.77900
C831        C  0.48394062  0.61854684  0.45585502     0.82900
N832        N  0.01236427  0.59931837  0.46604113    -0.79600
C833        C  0.34594559  0.74002157  0.16676246     0.80400
N834        N  0.31643573  0.76057278  0.17993987    -0.77900
C835        C  0.30023942  0.75066835  0.21236584     0.82800
N836        N  0.31318377  0.72013835  0.22945701    -0.77900
C837        C  0.34210042  0.70080426  0.21621664     0.82900
N838        N  0.35789190  0.71114019  0.18542174    -0.79600
C839        C  0.22094617  0.91848207  0.36080372     0.80400
N840        N  0.19567379  0.93210591  0.38580750    -0.77900
C841        C  0.20601903  0.96073443  0.40818686     0.82800
N842        N  0.24115255  0.97331604  0.40561122    -0.77900
C843        C  0.26526234  0.96022318  0.38109000     0.82900
N844        N  0.25476408  0.93339147  0.35866874    -0.79600
C845        C  0.42224524  0.56201395  0.32675865     0.03300
C846        C  0.40690888  0.52808979  0.33066154    -0.12900
C847        C  0.38298694  0.51510696  0.30432980     0.00800
C848        C  0.38067606  0.53256310  0.27058823    -0.11400
C849        C  0.39639819  0.56746643  0.26646075     0.03300
C850        C  0.41727457  0.58160118  0.29539315    -0.10800
H851        H  0.40794711  0.51532137  0.35706828     0.08900
H852        H  0.36269618  0.52119697  0.25016278     0.06400
H853        H  0.42679603  0.60954189  0.29556935     0.06200
O854        O  0.47550531  0.69818761  0.05348427    -0.85200
O855        O  0.44368412  0.76945366  0.06591675    -0.82200
C856        C  0.42644396  0.79378639  0.08268208     0.98300
O857        O  0.39145812  0.79299085  0.08007552    -0.82300
O858        O  0.37849414  0.76812211  0.00809091    -0.84900
C859        C  0.37488090  0.75152248  0.47953285     1.02800
O860        O  0.37850343  0.71708766  0.47805784    -0.77700
O861        O  0.44554372  0.70631006  0.00358586    -0.77900
C862        C  0.47430615  0.69475264  0.01924664     1.02700
O863        O  0.42789995  0.67301032  0.10742620    -0.85200
O864        O  0.39845826  0.74008773  0.12689249    -0.82300
C865        C  0.36284261  0.74201671  0.13026770     0.98300
O866        O  0.34213923  0.73931448  0.10295716    -0.82300
O867        O  0.32382796  0.71531836  0.03404980    -0.84900
C868        C  0.32244827  0.68043974  0.02970692     1.02800
O869        O  0.35150167  0.66142903  0.03175083    -0.77700
O870        O  0.42513210  0.64815003  0.05291805    -0.77900
C871        C  0.43042237  0.64556319  0.08730666     1.02700
Cr872      Cr  0.43416293  0.72108133  0.08643127     1.93700
Cr873      Cr  0.36140845  0.75167783  0.05538948     1.93200
Cr874      Cr  0.39859411  0.68540708  0.01981692     1.39100
O875        O  0.39635234  0.71723704  0.05586889    -1.22900
C876        C  0.42920990  0.60914149  0.10309641     0.80400
N877        N  0.44574182  0.59653991  0.13450825    -0.77900
C878        C  0.43259773  0.56477375  0.14984995     0.82800
N879        N  0.40140054  0.54913276  0.13530891    -0.77900
C880        C  0.38654837  0.56243037  0.10417799     0.82900
N881        N  0.40136599  0.59101879  0.08851107    -0.79600
C882        C  0.10625538  0.91788847  0.24585665     0.80400
N883        N  0.13221336  0.93639894  0.22828968    -0.77900
C884        C  0.16494545  0.92133983  0.22066615     0.82800
N885        N  0.17439671  0.88894248  0.23533979    -0.77900
C886        C  0.15097740  0.87114494  0.25767896     0.82900
N887        N  0.11528284  0.88458480  0.26148370    -0.79600
C888        C  0.29726626  0.78509449  0.41700643     0.80400
N889        N  0.28570171  0.81326442  0.43725581    -0.77900
C890        C  0.30330554  0.82206930  0.46783219     0.82800
N891        N  0.33280899  0.80241414  0.47899961    -0.77900
C892        C  0.34502672  0.77297948  0.46028811     0.82900
N893        N  0.32735674  0.76414273  0.42823157    -0.79600
C894        C  0.24153105  0.95297072  0.02680256     0.03300
C895        C  0.22676786  0.94364407  0.05981666    -0.12900
C896        C  0.22276132  0.96965514  0.08645042     0.00800
C897        C  0.23480333  0.00498485  0.08109228    -0.11400
C898        C  0.25375897  0.01444781  0.04934631     0.03300
C899        C  0.25305367  0.98879743  0.02067546    -0.10800
H900        H  0.21990379  0.91548868  0.06556839     0.08900
H901        H  0.23276174  0.02286415  0.10403757     0.06400
H902        H  0.26519296  0.99427809  0.99492421     0.06200
O903        O  0.48777812  0.54364916  0.18342125    -0.85200
O904        O  0.00296552  0.51960167  0.25594442    -0.82200
C905        C  0.02189737  0.00090907  0.28013982     0.98300
O906        O  0.01642650  0.96675594  0.28290889    -0.82300
O907        O  0.44249801  0.94992123  0.25851597    -0.84900
C908        C  0.41691885  0.93363524  0.24213311     1.02800
O909        O  0.41564441  0.93772717  0.20795126    -0.77700
O910        O  0.43560083  0.51687709  0.19229651    -0.77900
C911        C  0.45268484  0.54311123  0.17880424     1.02700
O912        O  0.04605995  0.98616535  0.15971331    -0.85200
O913        O  0.06489773  0.96661294  0.23060141    -0.82300
C914        C  0.06850018  0.93248229  0.23839264     0.98300
O915        O  0.04120418  0.91151519  0.23608890    -0.82300
O916        O  0.47061574  0.89052338  0.21275473    -0.84900
C917        C  0.46487752  0.88638908  0.17863178     1.02800
O918        O  0.46783205  0.91288171  0.15752669    -0.77700
O919        O  0.49018222  0.98138531  0.13524685    -0.77900
C920        C  0.02547516  0.98669282  0.13220046     1.02700
Cr921      Cr  0.02456112  0.99924750  0.20679648     1.93700
Cr922      Cr  0.99179969  0.93196032  0.24488623     1.93200
Cr923      Cr  0.45564664  0.96160991  0.17500279     1.39100
O924        O  0.99221859  0.96278075  0.20755915    -1.22900
C925        C  0.29255271  0.85512055  0.48678870    -0.05200
C926        C  0.25625168  0.85930752  0.49985855    -0.02300
C927        C  0.24697209  0.89054119  0.51980104     0.02700
C928        C  0.25301187  0.92241115  0.00362778    -0.05200
C929        C  0.29112343  0.91449091  0.00014925    -0.02300
C930        C  0.30247096  0.88063885  0.98683694     0.02700
C931        C  0.22861864  0.83153822  0.49290232     0.37300
C932        C  0.31925720  0.93912694  0.01340674     0.37300
C933        C  0.34071215  0.87512703  0.97675532     0.35700
C934        C  0.21017212  0.89427062  0.53479945     0.35700
N935        N  0.37084194  0.87068327  0.96753891    -0.39100
N936        N  0.18088297  0.89660697  0.54700487    -0.39100
N937        N  0.34285483  0.95728459  0.02428574    -0.38500
N938        N  0.20658393  0.80949138  0.48704913    -0.38500
C939        C  0.20859056  0.95834354  0.12137549    -0.05200
C940        C  0.23209658  0.95687369  0.15206730    -0.02300
C941        C  0.21837784  0.94362395  0.18485506     0.02700
C942        C  0.18124991  0.93286093  0.18672444    -0.05200
C943        C  0.15813120  0.93385011  0.15558587    -0.02300
C944        C  0.17201885  0.94604479  0.12299240     0.02700
C945        C  0.27058435  0.96747510  0.14949191     0.37300
C946        C  0.11979030  0.92224128  0.15647995     0.37300
C947        C  0.14894332  0.94429542  0.09074688     0.35700
C948        C  0.24204907  0.94125385  0.21655354     0.35700
N949        N  0.13053279  0.94147360  0.06526037    -0.39100
N950        N  0.26079046  0.93909089  0.24193306    -0.39100
N951        N  0.08901355  0.91390744  0.15696003    -0.38500
N952        N  0.30131251  0.97583217  0.14739288    -0.38500
C953        C  0.35088315  0.55286820  0.08846417    -0.05200
C954        C  0.35056755  0.54072901  0.05204359    -0.02300
C955        C  0.31671795  0.53940607  0.03324195     0.02700
C956        C  0.28396462  0.54449078  0.05283020    -0.05200
C957        C  0.28615514  0.57056135  0.08048997    -0.02300
C958        C  0.31918114  0.57220000  0.10076246     0.02700
C959        C  0.38491454  0.53394053  0.03294554     0.37300
C960        C  0.25280092  0.58870184  0.09256998     0.37300
C961        C  0.32142297  0.59683485  0.13126569     0.35700
C962        C  0.31333251  0.04000967  0.99167595     0.35700
N963        N  0.32290796  0.61752155  0.15479756    -0.39100
N964        N  0.31203075  0.04086892  0.96047204    -0.39100
N965        N  0.22610414  0.60282518  0.10264322    -0.38500
N966        N  0.41233842  0.52910465  0.01769421    -0.38500
C967        C  0.35085924  0.49671923  0.31969361    -0.05200
C968        C  0.31957074  0.51854067  0.32834479    -0.02300
C969        C  0.29255610  0.50536159  0.35148774     0.02700
C970        C  0.30026747  0.97908659  0.37414892    -0.05200
C971        C  0.33299920  0.95897012  0.36674952    -0.02300
C972        C  0.36401926  0.97688234  0.35262446     0.02700
C973        C  0.31601195  0.55605278  0.31662229     0.37300
C974        C  0.33435835  0.91982210  0.37231191     0.37300
C975        C  0.39785515  0.95697303  0.34507648     0.35700
C976        C  0.26003017  0.52768914  0.35903551     0.35700
N977        N  0.42517764  0.94138722  0.33960255    -0.39100
N978        N  0.23430893  0.54564315  0.36489358    -0.39100
N979        N  0.33545316  0.88855616  0.37641852    -0.38500
N980        N  0.31115811  0.58620650  0.30883494    -0.38500
C981        C  0.38334984  0.59453734  0.23900867    -0.05200
C982        C  0.40757108  0.62363303  0.23114759    -0.02300
C983        C  0.39387519  0.65945469  0.23052510     0.02700
C984        C  0.35547571  0.66616707  0.23149028    -0.05200
C985        C  0.33103139  0.63687975  0.23527224    -0.02300
C986        C  0.34478022  0.60092104  0.23563694     0.02700
C987        C  0.44720435  0.61735190  0.22871210     0.37300
C988        C  0.29210023  0.64369660  0.24118763     0.37300
C989        C  0.31899238  0.57111927  0.23097234     0.35700
C990        C  0.41919819  0.68998372  0.23236575     0.35700
N991        N  0.29794754  0.54776589  0.22689911    -0.39100
N992        N  0.43868138  0.71479229  0.23481592    -0.39100
N993        N  0.26139028  0.64911168  0.24792563    -0.38500
N994        N  0.47890962  0.61302900  0.22731409    -0.38500
C995        C  0.46773762  0.60946666  0.42078213    -0.05200
C996        C  0.43069176  0.61723214  0.41161874    -0.02300
C997        C  0.41706516  0.60558955  0.37805219     0.02700
C998        C  0.43777540  0.57971375  0.35827161    -0.05200
C999        C  0.47289954  0.56905168  0.36996296    -0.02300
C1000       C  0.48986650  0.58938542  0.39651461     0.02700
C1001       C  0.40572520  0.63390132  0.43703310     0.37300
C1002       C  0.48660431  0.53271023  0.36266405     0.37300
C1003       C  0.02973406  0.59396944  0.39528241     0.35700
C1004       C  0.38131976  0.61859851  0.36547486     0.35700
N1005       N  0.06134893  0.59857256  0.39579447    -0.39100
N1006       N  0.35311426  0.63054153  0.35625935    -0.39100
N1007       N  0.99378180  0.50372370  0.35945579    -0.38500
N1008       N  0.38442848  0.64585914  0.45692539    -0.38500
C1009       C  0.44026588  0.82710645  0.32135400    -0.05200
C1010       C  0.46821549  0.84498047  0.34089647    -0.02300
C1011       C  0.47659903  0.83378576  0.37624239     0.02700
C1012       C  0.45583052  0.80555570  0.39274729    -0.05200
C1013       C  0.43285820  0.78375524  0.37090899    -0.02300
C1014       C  0.42709704  0.79321250  0.33459138     0.02700
C1015       C  0.48868887  0.87460270  0.32502731     0.37300
C1016       C  0.41481592  0.75190054  0.38557353     0.37300
C1017       C  0.40617772  0.76872227  0.31140970     0.35700
C1018       C  0.50796489  0.85042260  0.39437738     0.35700
N1019       N  0.38913579  0.74923097  0.29326719    -0.39100
N1020       N  0.53354714  0.86433240  0.40712748    -0.39100
N1021       N  0.40063549  0.72616392  0.39679773    -0.38500
N1022       N  0.50578762  0.89805993  0.31297732    -0.38500
C1023       C  0.04806620  0.75188438  0.45410062    -0.05200
C1024       C  0.06061567  0.75966995  0.41846034    -0.02300
C1025       C  0.09836533  0.76339995  0.41162763     0.02700
C1026       C  0.12443877  0.75067063  0.43679463    -0.05200
C1027       C  0.11276880  0.74292034  0.47215427    -0.02300
C1028       C  0.07490822  0.74282178  0.48075305     0.02700
C1029       C  0.03646345  0.76051526  0.38701195     0.37300
C1030       C  0.14022589  0.73624313  0.49995873     0.37300
C1031       C  0.06389678  0.73284902  0.51697338     0.35700
C1032       C  0.10986735  0.77983698  0.37803700     0.35700
N1033       N  0.05569461  0.72546717  0.54615792    -0.39100
N1034       N  0.11793930  0.79333460  0.35111161    -0.39100
N1035       N  0.16205814  0.73174139  0.52244859    -0.38500
N1036       N  0.01911855  0.75989324  0.36062797    -0.38500
C1037       C  0.01086775  0.94509840  0.01169652    -0.05200
C1038       C  0.02969584  0.92812776  0.98304777    -0.02300
C1039       C  0.03824596  0.87121929  0.49375259     0.02700
C1040       C  0.00163482  0.85917160  0.50024947    -0.05200
C1041       C  0.96604985  0.89527111  0.01125459    -0.02300
C1042       C  0.97685633  0.92998310  0.02335286     0.02700
C1043       C  0.05738149  0.94727715  0.96281392     0.37300
C1044       C  0.43371486  0.87739204  0.02605475     0.37300
C1045       C  0.95300433  0.94964600  0.04820539     0.35700
C1046       C  0.06626374  0.84727613  0.47858877     0.35700
N1047       N  0.43399961  0.96382387  0.06859806    -0.39100
N1048       N  0.08987739  0.82944292  0.46702191    -0.39100
N1049       N  0.40817032  0.86397041  0.03894711    -0.38500
N1050       N  0.11650079  0.92679940  0.48964040    -0.38500
C1051       C  0.02350926  0.77674952  0.16752866    -0.05200
C1052       C  0.02781335  0.74108248  0.17962334    -0.02300
C1053       C  0.06171421  0.73040521  0.19490683     0.02700
C1054       C  0.09135877  0.75598738  0.19740406    -0.05200
C1055       C  0.08696236  0.79114584  0.18230412    -0.02300
C1056       C  0.05387273  0.80027278  0.16518877     0.02700
C1057       C  0.49784194  0.71400189  0.17416849     0.37300
C1058       C  0.11681687  0.81741593  0.18241128     0.37300
C1059       C  0.05123525  0.83257557  0.14259624     0.35700
C1060       C  0.06542508  0.69287576  0.20686060     0.35700
N1061       N  0.04799786  0.85729256  0.12347873    -0.39100
N1062       N  0.06722333  0.66300776  0.21675110    -0.39100
N1063       N  0.14072226  0.83814963  0.18107908    -0.38500
N1064       N  0.47545318  0.69245013  0.16791210    -0.38500
C1065       C  0.15629146  0.65800736  0.25526219    -0.05200
C1066       C  0.16226173  0.62328900  0.23813079    -0.02300
C1067       C  0.14115424  0.59279218  0.24835978     0.02700
C1068       C  0.11320151  0.59680626  0.27402240    -0.05200
C1069       C  0.10816148  0.63023748  0.29159498    -0.02300
C1070       C  0.13274627  0.65874378  0.28574235     0.02700
C1071       C  0.18983732  0.61724332  0.21055972     0.37300
C1072       C  0.07598307  0.63627249  0.31411151     0.37300
C1073       C  0.13071696  0.68980071  0.30980753     0.35700
C1074       C  0.14759196  0.55724281  0.23208828     0.35700
N1075       N  0.12597191  0.71442145  0.32871921    -0.39100
N1076       N  0.15265940  0.52895841  0.21906833    -0.39100
N1077       N  0.04980408  0.64253929  0.33081839    -0.38500
N1078       N  0.21165952  0.61101754  0.18864233    -0.38500
C1079       C  0.19378471  0.70909149  0.14339641    -0.05200
C1080       C  0.21328804  0.73326289  0.12122574    -0.02300
C1081       C  0.21526404  0.72636181  0.08409401     0.02700
C1082       C  0.20123588  0.69322025  0.06992456    -0.05200
C1083       C  0.17570465  0.67367788  0.09030037    -0.02300
C1084       C  0.17244331  0.68098050  0.12721294     0.02700
C1085       C  0.22987710  0.76588479  0.13639224     0.37300
C1086       C  0.15153069  0.64744220  0.07320225     0.37300
C1087       C  0.14525821  0.66084978  0.14757866     0.35700
C1088       C  0.23252612  0.75274543  0.06054507     0.35700
N1089       N  0.12316725  0.64414553  0.16256485    -0.39100
N1090       N  0.24626205  0.77388865  0.04189619    -0.39100
N1091       N  0.13113403  0.62706539  0.06020570    -0.38500
N1092       N  0.24270482  0.79212328  0.14838812    -0.38500
C1093       C  0.28985619  0.66391078  0.51852007     0.80400
N1094       N  0.26495873  0.68343088  0.53636532    -0.77900
C1095       C  0.23078937  0.67210521  0.54260503     0.82800
N1096       N  0.22022853  0.63935512  0.52926223    -0.77900
C1097       C  0.24335782  0.61873497  0.50859643     0.82900
N1098       N  0.27952224  0.63058046  0.50367916    -0.79600
C1099       C  0.10271291  0.53070197  0.84254062     0.80400
N1100       N  0.12119175  0.55131107  0.81894948    -0.77900
C1101       C  0.10849300  0.55683316  0.78526130     0.82800
N1102       N  0.07627190  0.54158387  0.77446822    -0.77900
C1103       C  0.05747600  0.51871667  0.79645973     0.82900
N1104       N  0.07075111  0.51324457  0.83122374    -0.79600
C1105       C  0.46273667  0.85495658  0.65844466     0.80400
N1106       N  0.44307231  0.84366625  0.62819481    -0.77900
C1107       C  0.45200289  0.81042407  0.61274525     0.82800
N1108       N  0.48149432  0.79142741  0.62602820    -0.77900
C1109       C  0.00049253  0.80291149  0.65475999     0.82900
N1110       N  0.99023480  0.83359743  0.67156142    -0.79600
C1111       C  0.19468110  0.71958460  0.68203953     0.03300
C1112       C  0.19896467  0.69603369  0.71141064    -0.11700
C1113       C  0.16931598  0.69095812  0.73540855     0.00800
C1114       C  0.14040375  0.71744009  0.73380571    -0.11400
C1115       C  0.13815394  0.74300612  0.70608629     0.03300
C1116       C  0.16642687  0.74505238  0.68150259    -0.10800
H1117       H  0.22302535  0.67887380  0.71134125     0.08900
H1118       H  0.11574163  0.71534818  0.74957097     0.06400
H1119       H  0.16205189  0.76090535  0.65713142     0.06200
O1120       O  0.26566719  0.80739176  0.72954010    -0.85200
O1121       O  0.19112240  0.82290115  0.75436189    -0.82200
C1122       C  0.16500557  0.83759468  0.77132505     0.98300
O1123       O  0.16365257  0.83030723  0.80475553    -0.82300
O1124       O  0.19099854  0.75544047  0.81587002    -0.84900
C1125       C  0.20846635  0.73034215  0.83187784     1.02800
O1126       O  0.24348948  0.73038814  0.82806682    -0.77700
O1127       O  0.25624627  0.75606130  0.75621947    -0.77900
C1128       C  0.26997901  0.77263173  0.73001213     1.02700
O1129       O  0.28908258  0.86110222  0.78083021    -0.85200
O1130       O  0.21903161  0.87883638  0.80604822    -0.82300
C1131       C  0.21390180  0.87931385  0.84057591     0.98300
O1132       O  0.21356442  0.85031720  0.85835385    -0.82300
O1133       O  0.23882423  0.78198193  0.87465335    -0.84900
C1134       C  0.27420020  0.77979554  0.87826602     1.02800
O1135       O  0.29513288  0.78271731  0.85143720    -0.77700
O1136       O  0.31425138  0.80621637  0.78199377    -0.77900
C1137       C  0.31703556  0.84102450  0.77725526     1.02700
Cr1138     Cr  0.24026988  0.84014441  0.76989210     1.93700
Cr1139     Cr  0.20398821  0.80363276  0.83577517     1.93200
Cr1140     Cr  0.27499458  0.77123207  0.80361583     1.39100
O1141       O  0.24136997  0.80681062  0.80482099    -1.22900
C1142       C  0.04012942  0.99323293  0.59486204     0.80400
N1143       N  0.02492543  0.96847256  0.57285403    -0.77900
C1144       C  0.03698635  0.96284245  0.53935051     0.82800
N1145       N  0.06554728  0.98273770  0.52720891    -0.77900
C1146       C  0.08172256  0.50532178  0.54818313     0.82900
N1147       N  0.07084165  0.50700117  0.58396384    -0.79600
C1148       C  0.17622425  0.66997612  0.91001579     0.80400
N1149       N  0.15264470  0.69392974  0.92508841    -0.77900
C1150       C  0.14698477  0.72732054  0.91136695     0.82800
N1151       N  0.16597971  0.73721857  0.88168278    -0.77900
C1152       C  0.19019926  0.71437316  0.86501351     0.82900
N1153       N  0.19522674  0.67968501  0.87903271    -0.79600
C1154       C  0.35421798  0.85686107  0.76924016     0.80400
N1155       N  0.38224204  0.83557999  0.78023964    -0.77900
C1156       C  0.41759249  0.84635680  0.77968733     0.82800
N1157       N  0.42535965  0.87972423  0.76653370    -0.77900
C1158       C  0.39863021  0.90209589  0.75292819     0.82900
N1159       N  0.36194255  0.89106509  0.75496617    -0.79600
C1160       C  0.97719651  0.84008834  0.97283595     0.03300
C1161       C  0.00240951  0.81127113  0.97634146    -0.12900
C1162       C  0.00281038  0.78302912  0.95086243     0.00800
C1163       C  0.47313321  0.78044235  0.92534678    -0.11400
C1164       C  0.45036238  0.81092767  0.91888009     0.03300
C1165       C  0.44958613  0.83883389  0.94464104    -0.10800
H1166       H  0.02604691  0.81524289  0.99403172     0.08900
H1167       H  0.47397660  0.75889421  0.90539998     0.06400
H1168       H  0.43351621  0.86320722  0.93906404     0.06200
O1169       O  0.14907096  0.98187618  0.93431161    -0.85200
O1170       O  0.12601221  0.50784068  0.00361762    -0.82200
C1171       C  0.11656881  0.52174740  0.53214675     0.98300
O1172       O  0.12443793  0.55549851  0.53483655    -0.82300
O1173       O  0.19724563  0.57050247  0.00954944    -0.84900
C1174       C  0.22333582  0.58591213  0.99351592     1.02800
O1175       O  0.22413906  0.58153194  0.95958297    -0.77700
O1176       O  0.19653673  0.50911276  0.94758246    -0.77900
C1177       C  0.18427228  0.98165829  0.93209641     1.02700
O1178       O  0.09430371  0.53815797  0.90639077    -0.85200
O1179       O  0.07142622  0.56252192  0.97623351    -0.82300
C1180       C  0.07190146  0.59700458  0.98435233     0.98300
O1181       O  0.10183203  0.61387626  0.98522012    -0.82300
O1182       O  0.17081426  0.63000918  0.96092760    -0.84900
C1183       C  0.17496155  0.63298927  0.92639277     1.02800
O1184       O  0.17414972  0.60522771  0.90630700    -0.77700
O1185       O  0.15151837  0.53559088  0.88627746    -0.77900
C1186       C  0.11645688  0.53369928  0.88056122     1.02700
Cr1187     Cr  0.11134175  0.52551907  0.95566452     1.93700
Cr1188     Cr  0.14867079  0.59053354  0.99484312     1.93200
Cr1189     Cr  0.18396446  0.55703430  0.92729077     1.39100
O1190       O  0.14617659  0.55961576  0.95769197    -1.22900
C1191       C  0.03846492  0.62072047  0.98185746     0.80400
N1192       N  0.02770994  0.64193711  0.51100531    -0.77900
C1193       C  0.50145375  0.67353548  0.99588627     0.82800
N1194       N  0.49526547  0.67784985  0.95996660    -0.77900
C1195       C  0.50931883  0.65446629  0.93540398     0.82900
N1196       N  0.02919049  0.62562556  0.94747841    -0.79600
C1197       C  0.34057263  0.73691712  0.66065000     0.80400
N1198       N  0.31488598  0.76063822  0.67604196    -0.77900
C1199       C  0.29706789  0.75018918  0.70750058     0.82800
N1200       N  0.30647804  0.71741464  0.72254470    -0.77900
C1201       C  0.33154021  0.69487475  0.70709802     0.82900
N1202       N  0.34701889  0.70469094  0.67603608    -0.79600
C1203       C  0.21842259  0.91340416  0.86128976     0.80400
N1204       N  0.19493389  0.92776625  0.88741180    -0.77900
C1205       C  0.20743490  0.95627254  0.90895327     0.82800
N1206       N  0.24263774  0.96804111  0.90435816    -0.77900
C1207       C  0.26482604  0.95345420  0.87900164     0.82900
N1208       N  0.25228918  0.92701739  0.85756486    -0.79600
C1209       C  0.43070171  0.58348740  0.83330227     0.03300
C1210       C  0.41640952  0.55234942  0.84920355    -0.12900
C1211       C  0.39004684  0.53197624  0.83046057     0.00800
C1212       C  0.38041199  0.54108541  0.79470705    -0.11400
C1213       C  0.39314024  0.57380933  0.77998772     0.03300
C1214       C  0.41930079  0.59387786  0.79937132    -0.10800
H1215       H  0.42227836  0.54664927  0.87737410     0.08900
H1216       H  0.35889178  0.52591176  0.78094555     0.06400
H1217       H  0.42819381  0.62035789  0.79001236     0.06200
O1218       O  0.47765286  0.69371190  0.55744451    -0.85200
O1219       O  0.44855849  0.76532427  0.56858235    -0.82200
C1220       C  0.43145539  0.79110248  0.58308491     0.98300
O1221       O  0.39646281  0.79119855  0.57919228    -0.82300
O1222       O  0.38916308  0.76675691  0.50641266    -0.84900
C1223       C  0.36417845  0.75109858  0.98220423     1.02800
O1224       O  0.36950951  0.71666767  0.98139243    -0.77700
O1225       O  0.45176136  0.70723750  0.50710989    -0.77900
C1226       C  0.47790877  0.69139899  0.52316657     1.02700
O1227       O  0.42526847  0.66920873  0.60733015    -0.85200
O1228       O  0.39664531  0.73794196  0.62553994    -0.82300
C1229       C  0.36082311  0.74085127  0.62604783     0.98300
O1230       O  0.34246313  0.73941109  0.59711766    -0.82300
O1231       O  0.32922704  0.71539500  0.52702209    -0.84900
C1232       C  0.32731003  0.68037497  0.52241242     1.02800
O1233       O  0.35589312  0.66088279  0.52558873    -0.77700
O1234       O  0.42663279  0.64554544  0.55221916    -0.77900
C1235       C  0.42938563  0.64208544  0.58684306     1.02700
Cr1236     Cr  0.43487380  0.71758392  0.58776823     1.93700
Cr1237     Cr  0.36641202  0.75109988  0.55162946     1.93200
Cr1238     Cr  0.40394956  0.68463866  0.51791038     1.39100
O1239       O  0.39932557  0.71526456  0.55466179    -1.22900
C1240       C  0.42822730  0.60506031  0.60198243     0.80400
N1241       N  0.44630662  0.59141694  0.63223765    -0.77900
C1242       C  0.43485119  0.55843783  0.64654142     0.82800
N1243       N  0.40414130  0.54211091  0.63190283    -0.77900
C1244       C  0.38777807  0.55615415  0.60182859     0.82900
N1245       N  0.40053773  0.58655058  0.58739342    -0.79600
C1246       C  0.10446377  0.91907336  0.74227074     0.80400
N1247       N  0.13165093  0.93971765  0.72921135    -0.77900
C1248       C  0.16626150  0.92711260  0.72599918     0.82800
N1249       N  0.17517589  0.89400762  0.73945065    -0.77900
C1250       C  0.14969524  0.87308708  0.75630903     0.82900
N1251       N  0.11308989  0.88495010  0.75653409    -0.79600
C1252       C  0.28961745  0.78134475  0.91493586     0.80400
N1253       N  0.27512510  0.80870421  0.93410506    -0.77900
C1254       C  0.28892466  0.81813456  0.96613633     0.82800
N1255       N  0.31824769  0.79958199  0.97998835    -0.77900
C1256       C  0.33351175  0.77073602  0.96211205     0.82900
N1257       N  0.31933041  0.76156794  0.92857694    -0.79600
C1258       C  0.26607494  0.94868146  0.54943344     0.03300
C1259       C  0.26027062  0.94258774  0.58587798    -0.12900
C1260       C  0.25531527  0.97200363  0.60894270     0.00800
C1261       C  0.25976279  0.00734871  0.59648208    -0.11400
C1262       C  0.26936960  0.01395433  0.56023174     0.03300
C1263       C  0.26886888  0.98419508  0.53625251    -0.10800
H1264       H  0.25697629  0.91502211  0.59583947     0.08900
H1265       H  0.25599464  0.02916422  0.61576590     0.06400
H1266       H  0.27409367  0.98780217  0.50785364     0.06200
O1267       O  0.49052299  0.53759476  0.67990078    -0.85200
O1268       O  0.00835295  0.51744971  0.75363991    -0.82200
C1269       C  0.02113027  0.00238778  0.78004434     0.98300
O1270       O  0.01503702  0.96818714  0.78139426    -0.82300
O1271       O  0.43912428  0.95269155  0.75556184    -0.84900
C1272       C  0.41323768  0.93769778  0.73804485     1.02800
O1273       O  0.41245216  0.94375672  0.70420416    -0.77700
O1274       O  0.43823071  0.51152681  0.69050959    -0.77900
C1275       C  0.45537261  0.53699901  0.67558510     1.02700
O1276       O  0.04412038  0.99152422  0.65902685    -0.85200
O1277       O  0.06358521  0.96908384  0.72871664    -0.82300
C1278       C  0.06679675  0.93453793  0.73459504     0.98300
O1279       O  0.03899316  0.91434067  0.73165521    -0.82300
O1280       O  0.46835667  0.89549123  0.70818294    -0.84900
C1281       C  0.46327643  0.89205462  0.67401164     1.02800
O1282       O  0.46444692  0.91936783  0.65364543    -0.77700
O1283       O  0.48803718  0.98848969  0.63378076    -0.77900
C1284       C  0.02371503  0.99270791  0.63144300     1.02700
Cr1285     Cr  0.02349964  0.00324252  0.70649268     1.93700
Cr1286     Cr  0.98962892  0.93518011  0.74193512     1.93200
Cr1287     Cr  0.45318151  0.96805435  0.67276196     1.39100
O1288       O  0.99027111  0.96739043  0.70585708    -1.22900
C1289       C  0.27639432  0.85302767  0.98093225    -0.05200
C1290       C  0.23817364  0.86117058  0.98272793    -0.02300
C1291       C  0.22653552  0.89623465  0.99304542     0.02700
C1292       C  0.27397987  0.91749477  0.52599690    -0.05200
C1293       C  0.30984858  0.91352118  0.51181924    -0.02300
C1294       C  0.31868031  0.88299558  0.49106924     0.02700
C1295       C  0.21080741  0.83356669  0.97408408     0.37300
C1296       C  0.33860566  0.93935570  0.52068210     0.37300
C1297       C  0.35393577  0.88118394  0.47258628     0.35700
C1298       C  0.18731423  0.90486967  0.99428622     0.35700
N1299       N  0.38176086  0.88013722  0.45739561    -0.39100
N1300       N  0.15595556  0.91135428  0.99499171    -0.39100
N1301       N  0.36197102  0.95938670  0.52811272    -0.38500
N1302       N  0.18898662  0.81166638  0.96698587    -0.38500
C1303       C  0.23353563  0.96611979  0.64119173    -0.05200
C1304       C  0.24997816  0.95949707  0.67510406    -0.02300
C1305       C  0.22752640  0.94937748  0.70420812     0.02700
C1306       C  0.18936937  0.94384365  0.69834501    -0.05200
C1307       C  0.17316797  0.95182413  0.66420842    -0.02300
C1308       C  0.19514052  0.96388139  0.63618073     0.02700
C1309       C  0.28977604  0.96156478  0.67954511     0.37300
C1310       C  0.13430922  0.94582438  0.65634247     0.37300
C1311       C  0.17860064  0.97147248  0.60099582     0.35700
C1312       C  0.24333928  0.94558478  0.74007313     0.35700
N1313       N  0.16605434  0.97711709  0.57275420    -0.39100
N1314       N  0.25597479  0.94331585  0.76877062    -0.39100
N1315       N  0.10350143  0.94164984  0.64902127    -0.38500
N1316       N  0.32157667  0.96280149  0.68317191    -0.38500
C1317       C  0.35160342  0.54593736  0.58743395    -0.05200
C1318       C  0.34931289  0.53930815  0.54980188    -0.02300
C1319       C  0.31484249  0.54111054  0.53204012     0.02700
C1320       C  0.28235754  0.54538844  0.55251943    -0.05200
C1321       C  0.28647452  0.56354573  0.58588703    -0.02300
C1322       C  0.32020598  0.56067106  0.60485706     0.02700
C1323       C  0.38268204  0.53308577  0.52886642     0.37300
C1324       C  0.25566371  0.58381634  0.60089667     0.37300
C1325       C  0.32333352  0.57583756  0.64091826     0.35700
C1326       C  0.31386051  0.04118325  0.48878886     0.35700
N1327       N  0.32588252  0.58811582  0.66958844    -0.39100
N1328       N  0.31014191  0.03901664  0.45782589    -0.39100
N1329       N  0.23114231  0.59972135  0.61335378    -0.38500
N1330       N  0.40909701  0.52818364  0.51203666    -0.38500
C1331       C  0.36216867  0.51318256  0.85179222    -0.05200
C1332       C  0.33160042  0.53378798  0.86381734    -0.02300
C1333       C  0.29963089  0.51610848  0.87484384     0.02700
C1334       C  0.29796053  0.97167999  0.86696858    -0.05200
C1335       C  0.32975331  0.95062581  0.85919784    -0.02300
C1336       C  0.35736611  0.96505156  0.83718082     0.02700
C1337       C  0.33207437  0.57336395  0.86310000     0.37300
C1338       C  0.33364997  0.91387418  0.87332946     0.37300
C1339       C  0.39224032  0.94574916  0.83346102     0.35700
C1340       C  0.26609220  0.53758770  0.87953601     0.35700
N1341       N  0.42046334  0.93084663  0.83172925    -0.39100
N1342       N  0.23961537  0.55520258  0.88236633    -0.39100
N1343       N  0.33669467  0.88446958  0.88426282    -0.38500
N1344       N  0.33138020  0.60487600  0.86295357    -0.38500
C1345       C  0.37352479  0.59396116  0.75075770    -0.05200
C1346       C  0.39552613  0.61579537  0.72810949    -0.02300
C1347       C  0.38243096  0.64996039  0.71715522     0.02700
C1348       C  0.34540482  0.66080299  0.72399403    -0.05200
C1349       C  0.32254644  0.63799567  0.74451592    -0.02300
C1350       C  0.33585913  0.60372903  0.75603050     0.02700
C1351       C  0.43450775  0.60723541  0.72277947     0.37300
C1352       C  0.28729095  0.65117301  0.75781398     0.37300
C1353       C  0.31070068  0.57949881  0.77436744     0.35700
C1354       C  0.40919382  0.67635933  0.70450499     0.35700
N1355       N  0.28987196  0.56030916  0.78818973    -0.39100
N1356       N  0.43017192  0.69801732  0.69529186    -0.39100
N1357       N  0.25992034  0.66172136  0.77015803    -0.38500
N1358       N  0.46608444  0.60266259  0.72016840    -0.38500
C1359       C  0.49652960  0.65309625  0.89757550    -0.05200
C1360       C  0.45996258  0.66395870  0.88896605    -0.02300
C1361       C  0.43970655  0.64345296  0.86387535     0.02700
C1362       C  0.45369162  0.60895894  0.85351099    -0.05200
C1363       C  0.49052835  0.59967403  0.86080651    -0.02300
C1364       C  0.51352450  0.62594343  0.87605954     0.02700
C1365       C  0.44065660  0.69058554  0.91054776     0.37300
C1366       C  0.50148423  0.56173719  0.86059926     0.37300
C1367       C  0.05294621  0.62021946  0.87731125     0.35700
C1368       C  0.40350309  0.65612214  0.85200699     0.35700
N1369       N  0.08476917  0.61655109  0.87802601    -0.39100
N1370       N  0.37515043  0.66709500  0.84199662    -0.39100
N1371       N  0.00602077  0.53069750  0.86245420    -0.38500
N1372       N  0.42522001  0.71052826  0.92939385    -0.38500
C1373       C  0.44329289  0.82739003  0.80459711    -0.05200
C1374       C  0.46496470  0.85017519  0.82615590    -0.02300
C1375       C  0.46134791  0.84915524  0.86369391     0.02700
C1376       C  0.44251193  0.81960057  0.88023995    -0.05200
C1377       C  0.42618010  0.79292448  0.85762759    -0.02300
C1378       C  0.42992898  0.79504510  0.81997491     0.02700
C1379       C  0.49160740  0.87408629  0.80982770     0.37300
C1380       C  0.40082586  0.76661338  0.87202564     0.37300
C1381       C  0.41491184  0.76678757  0.79663396     0.35700
C1382       C  0.47474891  0.88047647  0.88362009     0.35700
N1383       N  0.40274597  0.74447590  0.77793608    -0.39100
N1384       N  0.48400989  0.90727289  0.89742646    -0.39100
N1385       N  0.37875022  0.74606262  0.88122734    -0.38500
N1386       N  0.51419660  0.89264912  0.79813862    -0.38500
C1387       C  0.03964552  0.76695711  0.94109209    -0.05200
C1388       C  0.05352780  0.77151232  0.90552726    -0.02300
C1389       C  0.09087879  0.76509167  0.89799065     0.02700
C1390       C  0.11389176  0.74798276  0.92370191    -0.05200
C1391       C  0.10068150  0.74349560  0.95930377    -0.02300
C1392       C  0.06410059  0.75359489  0.96814268     0.02700
C1393       C  0.03026661  0.78087611  0.87486686     0.37300
C1394       C  0.12502315  0.72922073  0.98726974     0.37300
C1395       C  0.05190154  0.74977977  0.00515124     0.35700
C1396       C  0.10446212  0.77538792  0.86272734     0.35700
N1397       N  0.04290424  0.74732421  0.03493535    -0.39100
N1398       N  0.11363145  0.78391875  0.83419130    -0.39100
N1399       N  0.14431753  0.71775884  0.00961103    -0.38500
N1400       N  0.01398201  0.78608567  0.84840411    -0.38500
C1401       C  0.02327592  0.93024454  0.52016984    -0.05200
C1402       C  0.04868040  0.90683412  0.50279871    -0.02300
C1403       C  0.02028119  0.89274160  0.97245817     0.02700
C1404       C  0.98839170  0.87608152  0.98674302    -0.05200
C1405       C  0.97606253  0.88275453  0.51683262    -0.02300
C1406       C  0.98655520  0.91830797  0.52630280     0.02700
C1407       C  0.08641398  0.91820969  0.49563284     0.37300
C1408       C  0.43920445  0.87000025  0.52598325     0.37300
C1409       C  0.95972346  0.94215770  0.54356083     0.35700
C1410       C  0.04395819  0.87366351  0.94690003     0.35700
N1411       N  0.43815651  0.96209009  0.55623382    -0.39100
N1412       N  0.06315600  0.85890849  0.92663728    -0.39100
N1413       N  0.41029690  0.85955882  0.53402695    -0.38500
N1414       N  0.07861079  0.96216452  0.94516298    -0.38500
C1415       C  0.03607065  0.78661449  0.66506442    -0.05200
C1416       C  0.03960820  0.74902673  0.67080240    -0.02300
C1417       C  0.07184154  0.73515779  0.68712087     0.02700
C1418       C  0.10208371  0.75871668  0.69479072    -0.05200
C1419       C  0.09980494  0.79581923  0.68456528    -0.02300
C1420       C  0.06661713  0.80979239  0.67067060     0.02700
C1421       C  0.51079045  0.72410866  0.65757597     0.37300
C1422       C  0.13219099  0.81905400  0.68479215     0.37300
C1423       C  0.06448269  0.84776105  0.65981005     0.35700
C1424       C  0.07362364  0.69631997  0.69449437     0.35700
N1425       N  0.06147523  0.87781702  0.65092472    -0.39100
N1426       N  0.07374590  0.66544363  0.70081530    -0.39100
N1427       N  0.15802174  0.83735400  0.68255927    -0.38500
N1428       N  0.48946882  0.70410724  0.64536829    -0.38500
C1429       C  0.16168395  0.65442796  0.75344146    -0.05200
C1430       C  0.17614636  0.61983256  0.74101843    -0.02300
C1431       C  0.15830725  0.58703919  0.75071908     0.02700
C1432       C  0.12338417  0.58851205  0.76685562    -0.05200
C1433       C  0.10867855  0.62212812  0.77724793    -0.02300
C1434       C  0.13123615  0.65270448  0.77728884     0.02700
C1435       C  0.20848162  0.61588379  0.71851472     0.37300
C1436       C  0.07026275  0.62536420  0.78788663     0.37300
C1437       C  0.12352768  0.68075559  0.80369746     0.35700
C1438       C  0.17513223  0.55171924  0.74330903     0.35700
N1439       N  0.11561137  0.70237292  0.82503677    -0.39100
N1440       N  0.18855966  0.52356026  0.73766302    -0.39100
N1441       N  0.03918555  0.62819498  0.79463548    -0.38500
N1442       N  0.23405790  0.61105064  0.70045308    -0.38500
C1443       C  0.20480686  0.70748019  0.64568315    -0.05200
C1444       C  0.22360379  0.73180807  0.62302805    -0.02300
C1445       C  0.22677388  0.72381241  0.58628490     0.02700
C1446       C  0.21146907  0.69104678  0.57219437    -0.05200
C1447       C  0.18591927  0.67193001  0.59285142    -0.02300
C1448       C  0.18424500  0.67845200  0.62998974     0.02700
C1449       C  0.23714175  0.76643095  0.63672470     0.37300
C1450       C  0.15976841  0.64743835  0.57570241     0.37300
C1451       C  0.15954483  0.65617733  0.65111217     0.35700
C1452       C  0.24613440  0.74931502  0.56324881     0.35700
N1453       N  0.13968339  0.63737836  0.66662375    -0.39100
N1454       N  0.26221644  0.76945724  0.54533715    -0.39100
N1455       N  0.13799347  0.62869030  0.56231703    -0.38500
N1456       N  0.24710596  0.79467992  0.64665090    -0.38500
C1457       C  0.78949383  0.16398164  0.01992658     0.80400
N1458       N  0.76458314  0.18284397  0.03860849    -0.77900
C1459       C  0.73035779  0.17114213  0.04418353     0.82800
N1460       N  0.72006590  0.13878141  0.02983455    -0.77900
C1461       C  0.74342771  0.11877022  0.00890455     0.82900
N1462       N  0.77939752  0.13102660  0.00422005    -0.79600
C1463       C  0.60182734  0.03099554  0.34243849     0.80400
N1464       N  0.61959252  0.05212385  0.31875794    -0.77900
C1465       C  0.60631297  0.05773535  0.28527710     0.82800
N1466       N  0.57417975  0.04214070  0.27480025    -0.77900
C1467       C  0.55604387  0.01879915  0.29682641     0.82900
N1468       N  0.56994948  0.01315758  0.33136708    -0.79600
C1469       C  0.96440949  0.35663593  0.15672937     0.80400
N1470       N  0.94282172  0.34439521  0.12803577    -0.77900
C1471       C  0.95209518  0.31155752  0.11178896     0.82800
N1472       N  0.98284602  0.29353853  0.12332299    -0.77900
C1473       C  0.50231619  0.30555149  0.15242766     0.82900
N1474       N  0.49255792  0.33648696  0.16892820    -0.79600
C1475       C  0.69100363  0.21906706  0.18253585     0.03300
C1476       C  0.69648888  0.19674002  0.21256952    -0.11700
C1477       C  0.66760273  0.19222281  0.23751890     0.00800
C1478       C  0.63924303  0.21936367  0.23697510    -0.11400
C1479       C  0.63594548  0.24396588  0.20840672     0.03300
C1480       C  0.66231645  0.24383725  0.18180604    -0.10800
H1481       H  0.72088981  0.18017735  0.21270991     0.08900
H1482       H  0.61573370  0.21846640  0.25447525     0.06400
H1483       H  0.65666423  0.25832559  0.15681418     0.06200
O1484       O  0.76300020  0.30683026  0.22789205    -0.85200
O1485       O  0.68855457  0.32207919  0.25431798    -0.82200
C1486       C  0.66267152  0.33650953  0.27191997     0.98300
O1487       O  0.66203419  0.32870619  0.30521712    -0.82300
O1488       O  0.69114415  0.25449612  0.31422326    -0.84900
C1489       C  0.70868714  0.22959756  0.33030474     1.02800
O1490       O  0.74360219  0.22971991  0.32647061    -0.77700
O1491       O  0.75384130  0.25560397  0.25463385    -0.77900
C1492       C  0.76764481  0.27209980  0.22846732     1.02700
O1493       O  0.78726062  0.36041076  0.27880766    -0.85200
O1494       O  0.71745429  0.37771510  0.30554879    -0.82300
C1495       C  0.71238775  0.37808280  0.34007860     0.98300
O1496       O  0.71243046  0.34906853  0.35786537    -0.82300
O1497       O  0.73940239  0.28109841  0.37314781    -0.84900
C1498       C  0.77488339  0.27984466  0.37605288     1.02800
O1499       O  0.79517560  0.28243756  0.34873930    -0.77700
O1500       O  0.81252595  0.30556897  0.27921846    -0.77900
C1501       C  0.81522394  0.34036377  0.27491815     1.02700
Cr1502     Cr  0.73814867  0.33944021  0.26874644     1.93700
Cr1503     Cr  0.70342055  0.30238554  0.33501522     1.93200
Cr1504     Cr  0.77398897  0.27065483  0.30149791     1.39100
O1505       O  0.74025706  0.30616213  0.30357070    -1.22900
C1506       C  0.53858046  0.49328174  0.09682918     0.80400
N1507       N  0.52443956  0.46654273  0.07644666    -0.77900
C1508       C  0.53735353  0.45872869  0.04368350     0.82800
N1509       N  0.56576604  0.47840540  0.03069679    -0.77900
C1510       C  0.58367322  0.00635104  0.04885680     0.82900
N1511       N  0.57318967  0.00743978  0.08484991    -0.79600
C1512       C  0.67623826  0.17081606  0.40885752     0.80400
N1513       N  0.65283212  0.19511824  0.42367014    -0.77900
C1514       C  0.64775441  0.22850391  0.40969175     0.82800
N1515       N  0.66710708  0.23799254  0.38019605    -0.77900
C1516       C  0.69090659  0.21459939  0.36377560     0.82900
N1517       N  0.69540084  0.17999383  0.37791611    -0.79600
C1518       C  0.85248099  0.35603315  0.26746344     0.80400
N1519       N  0.88023324  0.33452073  0.27875226    -0.77900
C1520       C  0.91557669  0.34527677  0.27913276     0.82800
N1521       N  0.92365509  0.37870324  0.26636413    -0.77900
C1522       C  0.89723059  0.40128837  0.25266433     0.82900
N1523       N  0.86050922  0.39039902  0.25390174    -0.79600
C1524       C  0.47499279  0.33849675  0.47191862     0.03300
C1525       C  0.50153172  0.31077033  0.47480206    -0.12900
C1526       C  0.50324321  0.28310390  0.44871459     0.00800
C1527       C  0.97458352  0.28014651  0.42340392    -0.11400
C1528       C  0.94889658  0.30865624  0.41900760     0.03300
C1529       C  0.94694835  0.33571132  0.44566712    -0.10800
H1530       H  0.52513733  0.31558769  0.49233088     0.08900
H1531       H  0.97715394  0.25993662  0.40219705     0.06400
H1532       H  0.92961542  0.35910314  0.44073548     0.06200
O1533       O  0.64773972  0.48129472  0.43345856    -0.85200
O1534       O  0.62859351  0.00971869  0.50371432    -0.82200
C1535       C  0.61808742  0.02288022  0.03241045     0.98300
O1536       O  0.62512287  0.05676884  0.03419677    -0.82300
O1537       O  0.69801355  0.07205394  0.50826253    -0.84900
C1538       C  0.72394652  0.08746961  0.49201099     1.02800
O1539       O  0.72449315  0.08311145  0.45805049    -0.77700
O1540       O  0.69793932  0.01063165  0.44631877    -0.77900
C1541       C  0.68293324  0.48121385  0.43082214     1.02700
O1542       O  0.59436612  0.03784953  0.40655508    -0.85200
O1543       O  0.57226500  0.06312804  0.47651845    -0.82300
C1544       C  0.57227243  0.09772660  0.48442657     0.98300
O1545       O  0.60201745  0.11501640  0.48460656    -0.82300
O1546       O  0.67097512  0.13127499  0.45981873    -0.84900
C1547       C  0.67475018  0.13404884  0.42528553     1.02800
O1548       O  0.67366508  0.10625961  0.40526208    -0.77700
O1549       O  0.65131596  0.03637214  0.38559162    -0.77900
C1550       C  0.61618341  0.03387385  0.38036082     1.02700
Cr1551     Cr  0.61246548  0.02621380  0.45577391     1.93700
Cr1552     Cr  0.64929036  0.09201751  0.49394019     1.93200
Cr1553     Cr  0.68421336  0.05828859  0.42615855     1.39100
O1554       O  0.64673467  0.06079457  0.45694788    -1.22900
C1555       C  0.53823798  0.12090029  0.48219389     0.80400
N1556       N  0.52802077  0.14172781  0.01024556    -0.77900
C1557       C  0.00111641  0.17509779  0.49574604     0.82800
N1558       N  0.99506040  0.17925775  0.45980723    -0.77900
C1559       C  0.00897521  0.15557611  0.43548541     0.82900
N1560       N  0.52839943  0.12463925  0.44788222    -0.79600
C1561       C  0.84161264  0.23759451  0.16190684     0.80400
N1562       N  0.81359741  0.25995458  0.17537447    -0.77900
C1563       C  0.79644608  0.25026837  0.20742864     0.82800
N1564       N  0.80788126  0.21902210  0.22432880    -0.77900
C1565       C  0.83516555  0.19782831  0.21066803     0.82900
N1566       N  0.85086957  0.20733716  0.17964228    -0.79600
C1567       C  0.71682687  0.41223965  0.36057373     0.80400
N1568       N  0.69343099  0.42692763  0.38657976    -0.77900
C1569       C  0.70587784  0.45605550  0.40731322     0.82800
N1570       N  0.74084297  0.46819968  0.40197649    -0.77900
C1571       C  0.76293151  0.45310285  0.37685006     0.82900
N1572       N  0.75049666  0.42601732  0.35626673    -0.79600
C1573       C  0.93305162  0.08419250  0.33249977     0.03300
C1574       C  0.91700327  0.05404911  0.34869471    -0.12900
C1575       C  0.89119749  0.03354664  0.32928724     0.00800
C1576       C  0.88321289  0.04208145  0.29302741    -0.11400
C1577       C  0.89700131  0.07435104  0.27813102     0.03300
C1578       C  0.92359555  0.09376947  0.29775054    -0.10800
H1579       H  0.92147390  0.04902337  0.37721716     0.08900
H1580       H  0.86212805  0.02681641  0.27875879     0.06400
H1581       H  0.93378328  0.11971591  0.28827506     0.06200
O1582       O  0.97737246  0.19372498  0.05651972    -0.85200
O1583       O  0.94783018  0.26529592  0.06885219    -0.82200
C1584       C  0.93072848  0.29110268  0.08345341     0.98300
O1585       O  0.89570351  0.29099910  0.08014464    -0.82300
O1586       O  0.88743801  0.26766883  0.00715287    -0.84900
C1587       C  0.86443499  0.25524393  0.48113877     1.02800
O1588       O  0.87001012  0.22081627  0.47975763    -0.77700
O1589       O  0.95105208  0.20770046  0.00648929    -0.77900
C1590       C  0.97748249  0.19195188  0.02220066     1.02700
O1591       O  0.92552425  0.16830256  0.10652104    -0.85200
O1592       O  0.89689523  0.23700692  0.12576138    -0.82300
C1593       C  0.86111760  0.24021439  0.12677770     0.98300
O1594       O  0.84229960  0.23867482  0.09815338    -0.82300
O1595       O  0.82849114  0.21555692  0.02799663    -0.84900
C1596       C  0.82677038  0.18061800  0.02309094     1.02800
O1597       O  0.85550922  0.16120259  0.02519239    -0.77700
O1598       O  0.92638425  0.14544762  0.05106792    -0.77900
C1599       C  0.92941659  0.14142987  0.08561832     1.02700
Cr1600     Cr  0.93471011  0.21712742  0.08748745     1.93700
Cr1601     Cr  0.86566067  0.25100420  0.05252306     1.93200
Cr1602     Cr  0.90336223  0.18506505  0.01752207     1.39100
O1603       O  0.89890227  0.21524391  0.05466112    -1.22900
C1604       C  0.92887982  0.10402288  0.10025290     0.80400
N1605       N  0.94653126  0.09063312  0.13089654    -0.77900
C1606       C  0.93540861  0.05741812  0.14494661     0.82800
N1607       N  0.90527677  0.04065801  0.12972754    -0.77900
C1608       C  0.88937291  0.05425344  0.09923106     0.82900
N1609       N  0.90197307  0.08485191  0.08491805    -0.79600
C1610       C  0.60351197  0.42008272  0.24546868     0.80400
N1611       N  0.63153744  0.44118818  0.23474880    -0.77900
C1612       C  0.66602011  0.42792871  0.23136196     0.82800
N1613       N  0.67389353  0.39403515  0.24314286    -0.77900
C1614       C  0.64781449  0.37275026  0.25831971     0.82900
N1615       N  0.61132751  0.38504540  0.25804531    -0.79600
C1616       C  0.79101789  0.28382654  0.41213852     0.80400
N1617       N  0.77737690  0.31280232  0.42936781    -0.77900
C1618       C  0.79138745  0.32406180  0.46066658     0.82800
N1619       N  0.82045520  0.30583834  0.47571892    -0.77900
C1620       C  0.83499893  0.27543049  0.45965563     0.82900
N1621       N  0.82022198  0.26428726  0.42697602    -0.79600
C1622       C  0.76122057  0.44582278  0.04963584     0.03300
C1623       C  0.75627806  0.43789465  0.08593443    -0.12900
C1624       C  0.75298492  0.46623965  0.11056321     0.00800
C1625       C  0.75769687  0.50195785  0.09960991    -0.11400
C1626       C  0.76431098  0.51026529  0.06313776     0.03300
C1627       C  0.76272266  0.48184782  0.03786083    -0.10800
H1628       H  0.75308138  0.40990341  0.09468577     0.08900
H1629       H  0.75606231  0.52284397  0.12020264     0.06400
H1630       H  0.76643458  0.48702827  0.00943943     0.06200
O1631       O  0.99055076  0.03713632  0.17968010    -0.85200
O1632       O  0.50712438  0.01663960  0.25383430    -0.82200
C1633       C  0.51906374  0.50262057  0.28153542     0.98300
O1634       O  0.51349757  0.46829266  0.28263399    -0.82300
O1635       O  0.93775337  0.45171376  0.25639854    -0.84900
C1636       C  0.91210201  0.43686054  0.23843940     1.02800
O1637       O  0.91165153  0.44312523  0.20471372    -0.77700
O1638       O  0.93827344  0.01054668  0.18902497    -0.77900
C1639       C  0.95550869  0.03622826  0.17452560     1.02700
O1640       O  0.54234075  0.49333951  0.16084275    -0.85200
O1641       O  0.56246060  0.47030172  0.23053978    -0.82300
C1642       C  0.56594698  0.43568329  0.23636470     0.98300
O1643       O  0.53836212  0.41529536  0.23255907    -0.82300
O1644       O  0.96809021  0.39565672  0.20798010    -0.84900
C1645       C  0.96342796  0.39309314  0.17360219     1.02800
O1646       O  0.96421556  0.42095171  0.15397045    -0.77700
O1647       O  0.98650983  0.49073240  0.13573535    -0.77900
C1648       C  0.52196059  0.49453018  0.13323482     1.02700
Cr1649     Cr  0.52165606  0.50433237  0.20837254     1.93700
Cr1650     Cr  0.48864875  0.43539984  0.24269712     1.93200
Cr1651     Cr  0.95198872  0.46872204  0.17426301     1.39100
O1652       O  0.48899794  0.46808962  0.20714523    -1.22900
C1653       C  0.77749365  0.35900880  0.47437615    -0.05200
C1654       C  0.73896953  0.36658235  0.47470130    -0.02300
C1655       C  0.72627152  0.40115624  0.48556955     0.02700
C1656       C  0.76989091  0.41617454  0.02480701    -0.05200
C1657       C  0.80628712  0.41283646  0.01171601    -0.02300
C1658       C  0.81595307  0.38282782  0.99062901     0.02700
C1659       C  0.71227742  0.33884744  0.46457811     0.37300
C1660       C  0.83463472  0.43880496  0.02164237     0.37300
C1661       C  0.85186811  0.38142897  0.97331709     0.35700
C1662       C  0.68684930  0.40893788  0.48658256     0.35700
N1663       N  0.88016273  0.38060586  0.95895148    -0.39100
N1664       N  0.65537481  0.41489082  0.48718075    -0.39100
N1665       N  0.85803842  0.45869001  0.02946062    -0.38500
N1666       N  0.69087580  0.31695011  0.45630946    -0.38500
C1667       C  0.73230964  0.46005081  0.14337254    -0.05200
C1668       C  0.74975411  0.45267571  0.17661418    -0.02300
C1669       C  0.72790303  0.44537379  0.20696847     0.02700
C1670       C  0.68904023  0.44347070  0.20301152    -0.05200
C1671       C  0.67207289  0.45154455  0.16924354    -0.02300
C1672       C  0.69367864  0.46131532  0.14016843     0.02700
C1673       C  0.78979558  0.45186061  0.17922194     0.37300
C1674       C  0.63272352  0.44706438  0.16257092     0.37300
C1675       C  0.67608713  0.47111359  0.10604575     0.35700
C1676       C  0.74527351  0.44049687  0.24201776     0.35700
N1677       N  0.66238203  0.47886158  0.07882897    -0.39100
N1678       N  0.75957677  0.43744286  0.26989596    -0.39100
N1679       N  0.60156080  0.44354496  0.15639437    -0.38500
N1680       N  0.82175907  0.45097139  0.18126730    -0.38500
C1681       C  0.85304607  0.04397646  0.08515342    -0.05200
C1682       C  0.85025994  0.03664014  0.04768674    -0.02300
C1683       C  0.81559485  0.03852987  0.03026006     0.02700
C1684       C  0.78336736  0.04313659  0.05103425    -0.05200
C1685       C  0.78801091  0.06182364  0.08411264    -0.02300
C1686       C  0.82188210  0.05891410  0.10280377     0.02700
C1687       C  0.88330132  0.02948780  0.02663523     0.37300
C1688       C  0.75801784  0.08351247  0.09881096     0.37300
C1689       C  0.82532431  0.07398746  0.13893102     0.35700
C1690       C  0.81721896  0.53323991  0.99776610     0.35700
N1691       N  0.82812738  0.08602736  0.16769740    -0.39100
N1692       N  0.81794173  0.52750048  0.96706160    -0.39100
N1693       N  0.73416002  0.10038554  0.11126796    -0.38500
N1694       N  0.90954508  0.02377704  0.00979487    -0.38500
C1695       C  0.86277857  0.01424728  0.34970886    -0.05200
C1696       C  0.83140162  0.03425631  0.36074886    -0.02300
C1697       C  0.79976766  0.01595977  0.37190088     0.02700
C1698       C  0.79570813  0.47114281  0.36390446    -0.05200
C1699       C  0.82779868  0.45015278  0.35744636    -0.02300
C1700       C  0.85541544  0.46377075  0.33500121     0.02700
C1701       C  0.83081569  0.07380779  0.35902504     0.37300
C1702       C  0.83218516  0.41436664  0.37368800     0.37300
C1703       C  0.89051532  0.44464532  0.33265694     0.35700
C1704       C  0.76529646  0.03635089  0.37479250     0.35700
N1705       N  0.91889938  0.42996990  0.33197765    -0.39100
N1706       N  0.73781541  0.05262142  0.37618737    -0.39100
N1707       N  0.83569926  0.38569463  0.38625166    -0.38500
N1708       N  0.82952416  0.10529512  0.35795016    -0.38500
C1709       C  0.87730251  0.09532875  0.24934638    -0.05200
C1710       C  0.89915940  0.11883367  0.22822615    -0.02300
C1711       C  0.88655362  0.15422571  0.22136612     0.02700
C1712       C  0.84931044  0.16409012  0.22780932    -0.05200
C1713       C  0.82596659  0.13937891  0.24532855    -0.02300
C1714       C  0.83940943  0.10447145  0.25469322     0.02700
C1715       C  0.93759644  0.11004588  0.22047529     0.37300
C1716       C  0.78979666  0.15098430  0.25764239     0.37300
C1717       C  0.81392619  0.07872613  0.27037646     0.35700
C1718       C  0.91348252  0.18225253  0.21322893     0.35700
N1719       N  0.79283705  0.05847077  0.28221110    -0.39100
N1720       N  0.93452457  0.20520127  0.20795382    -0.39100
N1721       N  0.76159185  0.16031266  0.26911202    -0.38500
N1722       N  0.96880731  0.10520490  0.21547543    -0.38500
C1723       C  0.99724040  0.15472911  0.39733849    -0.05200
C1724       C  0.96088664  0.16550471  0.38791221    -0.02300
C1725       C  0.94117347  0.14464408  0.36260617     0.02700
C1726       C  0.95543781  0.10997796  0.35306052    -0.05200
C1727       C  0.99211015  0.10090319  0.36137726    -0.02300
C1728       C  0.01476294  0.12768889  0.37621770     0.02700
C1729       C  0.94133458  0.19216932  0.40920274     0.37300
C1730       C  0.00277231  0.06297301  0.36357989     0.37300
C1731       C  0.55470751  0.11873731  0.37887800     0.35700
C1732       C  0.90516781  0.15690811  0.34982326     0.35700
N1733       N  0.58652226  0.11543866  0.38077844    -0.39100
N1734       N  0.87688915  0.16727735  0.33900946    -0.39100
N1735       N  0.50691719  0.02892889  0.36674320    -0.38500
N1736       N  0.92621106  0.21215704  0.42824940    -0.38500
C1737       C  0.94022407  0.32694145  0.30539362    -0.05200
C1738       C  0.96040786  0.35042453  0.32758051    -0.02300
C1739       C  0.95627544  0.34881895  0.36498976     0.02700
C1740       C  0.93908558  0.31807911  0.38098972    -0.05200
C1741       C  0.92351180  0.29133648  0.35794868    -0.02300
C1742       C  0.92706457  0.29427007  0.32033379     0.02700
C1743       C  0.98718744  0.37482784  0.31207471     0.37300
C1744       C  0.89864879  0.26421663  0.37171867     0.37300
C1745       C  0.91253476  0.26604025  0.29667340     0.35700
C1746       C  0.96831439  0.38027637  0.38551918     0.35700
N1747       N  0.90060473  0.24363354  0.27796087    -0.39100
N1748       N  0.97647153  0.40705776  0.40000038    -0.39100
N1749       N  0.87692978  0.24283387  0.37988281    -0.38500
N1750       N  0.00987469  0.39360972  0.30088245    -0.38500
C1751       C  0.54066251  0.26851900  0.43886792    -0.05200
C1752       C  0.55446313  0.27346677  0.40330461    -0.02300
C1753       C  0.59149648  0.26573061  0.39522870     0.02700
C1754       C  0.61477639  0.24954004  0.42134941    -0.05200
C1755       C  0.60203452  0.24615998  0.45714207    -0.02300
C1756       C  0.56525533  0.25537426  0.46586431     0.02700
C1757       C  0.53140871  0.28498528  0.37324852     0.37300
C1758       C  0.62713495  0.23371228  0.48531577     0.37300
C1759       C  0.55292334  0.25064782  0.50269482     0.35700
C1760       C  0.60427385  0.27313332  0.35890565     0.35700
N1761       N  0.54372877  0.24734425  0.53232911    -0.39100
N1762       N  0.61259432  0.27892510  0.32942838    -0.39100
N1763       N  0.64724442  0.22385124  0.50771863    -0.38500
N1764       N  0.51561783  0.29198268  0.34692874    -0.38500
C1765       C  0.52337839  0.42544633  0.02558598    -0.05200
C1766       C  0.54806865  0.40222122  0.00714503    -0.02300
C1767       C  0.51670541  0.39242814  0.47062905     0.02700
C1768       C  0.48526746  0.37519531  0.48528337    -0.05200
C1769       C  0.47518317  0.37883085  0.02100756    -0.02300
C1770       C  0.48648249  0.41387530  0.03161183     0.02700
C1771       C  0.58532573  0.41389528  0.99845831     0.37300
C1772       C  0.93826981  0.36627291  0.02850347     0.37300
C1773       C  0.45964290  0.43805126  0.04841641     0.35700
C1774       C  0.54000879  0.37391097  0.44439772     0.35700
N1775       N  0.93883384  0.45573329  0.06319726    -0.39100
N1776       N  0.55884585  0.35954345  0.42356669    -0.39100
N1777       N  0.90832217  0.35733484  0.03454025    -0.38500
N1778       N  0.57438916  0.46253227  0.44315664    -0.38500
C1779       C  0.53688361  0.28841319  0.16356194    -0.05200
C1780       C  0.53795855  0.25165533  0.17353210    -0.02300
C1781       C  0.56908957  0.23791284  0.19182103     0.02700
C1782       C  0.60015166  0.26077851  0.19825316    -0.05200
C1783       C  0.59978178  0.29705303  0.18502078    -0.02300
C1784       C  0.56825812  0.31057665  0.16756479     0.02700
C1785       C  0.00913992  0.22764350  0.16094630     0.37300
C1786       C  0.63300375  0.31919049  0.18506333     0.37300
C1787       C  0.56906913  0.34620625  0.15047365     0.35700
C1788       C  0.56956321  0.19951614  0.20126850     0.35700
N1789       N  0.56931475  0.37414356  0.13609048    -0.39100
N1790       N  0.56902686  0.16889543  0.20865336    -0.39100
N1791       N  0.65954917  0.33647902  0.18278705    -0.38500
N1792       N  0.98657014  0.20788347  0.15063386    -0.38500
C1793       C  0.65965916  0.15540969  0.25478281    -0.05200
C1794       C  0.67367873  0.12101771  0.24140191    -0.02300
C1795       C  0.65544535  0.08817404  0.25015936     0.02700
C1796       C  0.62072126  0.08951373  0.26669428    -0.05200
C1797       C  0.60629098  0.12300163  0.27772587    -0.02300
C1798       C  0.62909608  0.15335270  0.27837650     0.02700
C1799       C  0.70623119  0.11730232  0.21915384     0.37300
C1800       C  0.56810208  0.12631307  0.28904928     0.37300
C1801       C  0.62258039  0.17969459  0.30659035     0.35700
C1802       C  0.67176486  0.05294846  0.24145058     0.35700
N1803       N  0.61531428  0.19903609  0.33011658    -0.39100
N1804       N  0.68491027  0.02493154  0.23463546    -0.39100
N1805       N  0.53720782  0.12957167  0.29633763    -0.38500
N1806       N  0.73198384  0.11278211  0.20125058    -0.38500
C1807       C  0.70166098  0.20681261  0.14644200    -0.05200
C1808       C  0.71990225  0.23144549  0.12363650    -0.02300
C1809       C  0.72356388  0.22312179  0.08700454     0.02700
C1810       C  0.71004065  0.18949650  0.07345248    -0.05200
C1811       C  0.68496741  0.16970509  0.09410118    -0.02300
C1812       C  0.68189940  0.17718792  0.13096888     0.02700
C1813       C  0.73203615  0.26666601  0.13710255     0.37300
C1814       C  0.66045789  0.14366739  0.07707946     0.37300
C1815       C  0.65596730  0.15596612  0.15185867     0.35700
C1816       C  0.74070418  0.24943514  0.06322129     0.35700
N1817       N  0.63483799  0.13849397  0.16732453    -0.39100
N1818       N  0.75450161  0.27047911  0.04450863    -0.39100
N1819       N  0.63994489  0.12366578  0.06366368    -0.38500
N1820       N  0.74075899  0.29523960  0.14723761    -0.38500
C1821       C  0.78488429  0.16673936  0.52216269     0.80400
N1822       N  0.75842475  0.18678810  0.53753359    -0.77900
C1823       C  0.72360261  0.17550894  0.54052868     0.82800
N1824       N  0.71446511  0.14249298  0.52686635    -0.77900
C1825       C  0.73959801  0.12148840  0.50899333     0.82900
N1826       N  0.77591785  0.13332355  0.50695404    -0.79600
C1827       C  0.59935206  0.03090874  0.84503534     0.80400
N1828       N  0.61566082  0.05494442  0.82327742    -0.77900
C1829       C  0.60169043  0.06316664  0.79072103     0.82800
N1830       N  0.57046917  0.04694627  0.77873116    -0.77900
C1831       C  0.55340740  0.02098064  0.79868048     0.82900
N1832       N  0.56776244  0.01300711  0.83279936    -0.79600
C1833       C  0.95893142  0.35131786  0.66289076     0.80400
N1834       N  0.93970295  0.34343093  0.63134111    -0.77900
C1835       C  0.94567563  0.31014311  0.61482944     0.82800
N1836       N  0.97222477  0.28767967  0.62826015    -0.77900
C1837       C  0.49064482  0.29517152  0.65837496     0.82900
N1838       N  0.48305874  0.32615269  0.67604688    -0.79600
C1839       C  0.68683351  0.21991248  0.67863488     0.03300
C1840       C  0.69296261  0.19638169  0.70781476    -0.11700
C1841       C  0.66516335  0.19204233  0.73398236     0.00800
C1842       C  0.63544616  0.21730933  0.73335276    -0.11400
C1843       C  0.63055913  0.24149328  0.70506665     0.03300
C1844       C  0.65755274  0.24423035  0.67910594    -0.10800
H1845       H  0.71657643  0.17860616  0.70652389     0.08900
H1846       H  0.61194527  0.21464978  0.75074631     0.06400
H1847       H  0.65151031  0.25958766  0.65473536     0.06200
O1848       O  0.76567387  0.30776622  0.73104084    -0.85200
O1849       O  0.69263142  0.32188861  0.75784092    -0.82200
C1850       C  0.66718731  0.33753970  0.77468051     0.98300
O1851       O  0.66687941  0.33243390  0.80857645    -0.82300
O1852       O  0.69360194  0.25813831  0.82174306    -0.84900
C1853       C  0.71165461  0.23274792  0.83662221     1.02800
O1854       O  0.74632697  0.23232786  0.83112489    -0.77700
O1855       O  0.75580739  0.25689282  0.75821037    -0.77900
C1856       C  0.76947214  0.27306675  0.73169301     1.02700
O1857       O  0.79031415  0.36171307  0.78089428    -0.85200
O1858       O  0.72114546  0.38117627  0.80659765    -0.82300
C1859       C  0.71772499  0.38275742  0.84129698     0.98300
O1860       O  0.71913698  0.35424043  0.85988268    -0.82300
O1861       O  0.74447326  0.28599445  0.87767217    -0.84900
C1862       C  0.77998287  0.28317029  0.87950276     1.02800
O1863       O  0.79937198  0.28419776  0.85148876    -0.77700
O1864       O  0.81510282  0.30644907  0.78188000    -0.77900
C1865       C  0.81807035  0.34123778  0.77803353     1.02700
Cr1866     Cr  0.74151066  0.34088735  0.77129278     1.93700
Cr1867     Cr  0.70807746  0.30673737  0.83946558     1.93200
Cr1868     Cr  0.77678761  0.27227416  0.80485078     1.39100
O1869       O  0.74393307  0.30845313  0.80695874    -1.22900
C1870       C  0.53820048  0.49032621  0.59372116     0.80400
N1871       N  0.51764855  0.47335584  0.56856665    -0.77900
C1872       C  0.52773131  0.47106814  0.53391590     0.82800
N1873       N  0.56009220  0.48663406  0.52403811    -0.77900
C1874       C  0.58267085  0.00787005  0.54816020     0.82900
N1875       N  0.56999294  0.01319200  0.58304730    -0.79600
C1876       C  0.67933154  0.16979547  0.91225475     0.80400
N1877       N  0.65993970  0.19464725  0.93083937    -0.77900
C1878       C  0.65651211  0.22929832  0.92002853     0.82800
N1879       N  0.67399361  0.23987036  0.88974734    -0.77900
C1880       C  0.69503365  0.21631144  0.87013363     0.82900
N1881       N  0.69725882  0.18016863  0.88093769    -0.79600
C1882       C  0.85551401  0.35656952  0.77439379     0.80400
N1883       N  0.88100615  0.33714915  0.79212981    -0.77900
C1884       C  0.91594146  0.34786908  0.79612512     0.82800
N1885       N  0.92605288  0.38013892  0.78118535    -0.77900
C1886       C  0.90153829  0.40071632  0.76134786     0.82900
N1887       N  0.86528130  0.38909369  0.75832661    -0.79600
C1888       C  0.48703210  0.32016790  0.98820438     0.03300
C1889       C  0.50886506  0.28895761  0.99246747    -0.12900
C1890       C  0.51040969  0.26295951  0.96460924     0.00800
C1891       C  0.98091959  0.26175023  0.93947143    -0.11400
C1892       C  0.96096372  0.29413792  0.93334028     0.03300
C1893       C  0.96150654  0.32140915  0.95976059    -0.10800
H1894       H  0.53065588  0.29026914  0.01255089     0.08900
H1895       H  0.98059198  0.24053037  0.91914388     0.06400
H1896       H  0.94762191  0.34705028  0.95420597     0.06200
O1897       O  0.64473807  0.48377624  0.93287445    -0.85200
O1898       O  0.63234751  0.00583167  0.00651529    -0.82200
C1899       C  0.61476055  0.02647396  0.52989903     0.98300
O1900       O  0.62223779  0.06019761  0.53247592    -0.82300
O1901       O  0.70019846  0.07053241  0.00861432    -0.84900
C1902       C  0.72591191  0.08565534  0.99160406     1.02800
O1903       O  0.72568338  0.08129223  0.95757087    -0.77700
O1904       O  0.70079249  0.00865182  0.94464083    -0.77900
C1905       C  0.68018576  0.48264530  0.93308335     1.02700
O1906       O  0.59489545  0.03235319  0.90976273    -0.85200
O1907       O  0.57499389  0.05722772  0.97982335    -0.82300
C1908       C  0.57323748  0.09175683  0.98740079     0.98300
O1909       O  0.60188702  0.11090542  0.98634576    -0.82300
O1910       O  0.67151784  0.12864831  0.96123908    -0.84900
C1911       C  0.67556912  0.13225216  0.92686045     1.02800
O1912       O  0.67324129  0.10497547  0.90619426    -0.77700
O1913       O  0.65074222  0.03450571  0.88640691    -0.77900
C1914       C  0.61550061  0.03079102  0.88251352     1.02700
Cr1915     Cr  0.61512876  0.02173340  0.95839198     1.93700
Cr1916     Cr  0.65059011  0.08909198  0.99507731     1.93200
Cr1917     Cr  0.68485041  0.05643991  0.92617327     1.39100
O1918       O  0.64833539  0.05749908  0.95831731    -1.22900
C1919       C  0.53651932  0.11052594  0.99029258     0.80400
N1920       N  0.52515881  0.14641250  0.50719732    -0.77900
C1921       C  0.99693167  0.16266638  0.00037273     0.82800
N1922       N  0.97872617  0.15406441  0.96934158    -0.77900
C1923       C  0.98771091  0.12406949  0.95033040     0.82900
N1924       N  0.51396943  0.10068321  0.96350534    -0.79600
C1925       C  0.84366566  0.24046794  0.66501973     0.80400
N1926       N  0.81450659  0.26143286  0.67824311    -0.77900
C1927       C  0.79807588  0.25148444  0.71052093     0.82800
N1928       N  0.81053996  0.22076020  0.72751929    -0.77900
C1929       C  0.83910604  0.20108559  0.71424868     0.82900
N1930       N  0.85502098  0.21126688  0.68347175    -0.79600
C1931       C  0.72026443  0.41773915  0.86145646     0.80400
N1932       N  0.69462819  0.43073653  0.88644917    -0.77900
C1933       C  0.70492486  0.45834634  0.91009266     0.82800
N1934       N  0.74022620  0.47039901  0.90880618    -0.77900
C1935       C  0.76457010  0.45813744  0.88424154     0.82900
N1936       N  0.75426231  0.43240614  0.86049320    -0.79600
C1937       C  0.92426950  0.06541372  0.82364805     0.03300
C1938       C  0.90833360  0.03209978  0.83002604    -0.12900
C1939       C  0.88330184  0.01807034  0.80523809     0.00800
C1940       C  0.87927760  0.03420993  0.77099428    -0.11400
C1941       C  0.89513074  0.06866112  0.76466186     0.03300
C1942       C  0.91815126  0.08342705  0.79162522    -0.10800
H1943       H  0.91025323  0.02061177  0.85696270     0.08900
H1944       H  0.86001223  0.02236332  0.75199018     0.06400
H1945       H  0.92815552  0.11114520  0.79017149     0.06200
O1946       O  0.97472643  0.19962422  0.55315410    -0.85200
O1947       O  0.94278781  0.27057098  0.56594902    -0.82200
C1948       C  0.92579134  0.29499606  0.58278341     0.98300
O1949       O  0.89077071  0.29444461  0.58040514    -0.82300
O1950       O  0.87790227  0.27185058  0.50771299    -0.84900
C1951       C  0.87371909  0.25235519  0.98001156     1.02800
O1952       O  0.87758680  0.21798570  0.97841039    -0.77700
O1953       O  0.94584224  0.20932398  0.50297526    -0.77900
C1954       C  0.97412205  0.19686631  0.51887425     1.02700
O1955       O  0.92651282  0.17308338  0.60584557    -0.85200
O1956       O  0.89675670  0.24066511  0.62598380    -0.82300
C1957       C  0.86110339  0.24272427  0.62886959     0.98300
O1958       O  0.84079389  0.24033611  0.60129016    -0.82300
O1959       O  0.82330442  0.21813509  0.53170874    -0.84900
C1960       C  0.82199802  0.18333306  0.52674313     1.02800
O1961       O  0.85103810  0.16429753  0.52850775    -0.77700
O1962       O  0.92421775  0.15012887  0.55053586    -0.77900
C1963       C  0.93018679  0.14638388  0.58477514     1.02700
Cr1964     Cr  0.93287790  0.22199725  0.58577275     1.93700
Cr1965     Cr  0.86068516  0.25385910  0.55440760     1.93200
Cr1966     Cr  0.89835273  0.18834030  0.51784537     1.39100
O1967       O  0.89554330  0.21919562  0.55455249    -1.22900
C1968       C  0.93363023  0.10880997  0.59876989     0.80400
N1969       N  0.94798567  0.09711316  0.63161883    -0.77900
C1970       C  0.93709130  0.06345199  0.64474179     0.82800
N1971       N  0.90887140  0.04576852  0.62732238    -0.77900
C1972       C  0.89659648  0.05762398  0.59465108     0.82900
N1973       N  0.91097692  0.08729204  0.58033647    -0.79600
C1974       C  0.60716240  0.41799037  0.74397817     0.80400
N1975       N  0.63351687  0.43632928  0.72663188    -0.77900
C1976       C  0.66658398  0.42128602  0.72003661     0.82800
N1977       N  0.67574217  0.38926988  0.73564878    -0.77900
C1978       C  0.65174521  0.37167649  0.75757438     0.82900
N1979       N  0.61592523  0.38497801  0.76026259    -0.79600
C1980       C  0.79804152  0.28544268  0.91514137     0.80400
N1981       N  0.78556994  0.31343471  0.93503916    -0.77900
C1982       C  0.80186917  0.32221491  0.96622899     0.82800
N1983       N  0.83115890  0.30281242  0.97835205    -0.77900
C1984       C  0.84438942  0.27363931  0.95989981     0.82900
N1985       N  0.82789801  0.26468993  0.92726373    -0.79600
C1986       C  0.73957306  0.45570968  0.52303196     0.03300
C1987       C  0.72762714  0.44335334  0.55619950    -0.12900
C1988       C  0.72586978  0.46693204  0.58520493     0.00800
C1989       C  0.73760891  0.50264038  0.58184933    -0.11400
C1990       C  0.75341253  0.51501272  0.54946678     0.03300
C1991       C  0.74997793  0.49213754  0.51887528    -0.10800
H1992       H  0.72133412  0.41472731  0.56004584     0.08900
H1993       H  0.73770874  0.51867318  0.60624494     0.06400
H1994       H  0.75961478  0.50014601  0.49275713     0.06200
O1995       O  0.99051138  0.04281420  0.68099588    -0.85200
O1996       O  0.50600326  0.01978635  0.75383169    -0.82200
C1997       C  0.52393950  0.50018908  0.77972581     0.98300
O1998       O  0.51805135  0.46609673  0.78221020    -0.82300
O1999       O  0.94323139  0.45015998  0.75961395    -0.84900
C2000       C  0.91720814  0.43432706  0.74347039     1.02800
O2001       O  0.91506839  0.43912122  0.70941748    -0.77700
O2002       O  0.93768053  0.01687767  0.68903384    -0.77900
C2003       C  0.95557523  0.04264688  0.67541117     1.02700
O2004       O  0.54458537  0.48608065  0.65808275    -0.85200
O2005       O  0.56571956  0.46659473  0.72853241    -0.82300
C2006       C  0.56936287  0.43252364  0.73634834     0.98300
O2007       O  0.54196815  0.41160097  0.73436755    -0.82300
O2008       O  0.97041419  0.39164576  0.71248061    -0.84900
C2009       C  0.96387135  0.38797821  0.67844294     1.02800
O2010       O  0.96578075  0.41471846  0.65760652    -0.77700
O2011       O  0.98785447  0.48274953  0.63513882    -0.77900
C2012       C  0.52329343  0.48689068  0.63106061     1.02700
Cr2013     Cr  0.52490574  0.49933405  0.70589421     1.93700
Cr2014     Cr  0.49268082  0.43198432  0.74436846     1.93200
Cr2015     Cr  0.95432066  0.46311533  0.67575619     1.39100
O2016       O  0.49221498  0.46321563  0.70733895    -1.22900
C2017       C  0.79004020  0.35504881  0.98481061    -0.05200
C2018       C  0.75299244  0.35925918  0.99584499    -0.02300
C2019       C  0.74294801  0.38992905  0.01621672     0.02700
C2020       C  0.75187326  0.42731561  0.49790483    -0.05200
C2021       C  0.79018351  0.42013648  0.49553036    -0.02300
C2022       C  0.80263987  0.38698937  0.48170729     0.02700
C2023       C  0.72538535  0.33221324  0.98635448     0.37300
C2024       C  0.81744987  0.44390572  0.51177491     0.37300
C2025       C  0.84129804  0.38288226  0.47304792     0.35700
C2026       C  0.70540090  0.39401266  0.02923131     0.35700
N2027       N  0.87205132  0.38103143  0.46522345    -0.39100
N2028       N  0.67559214  0.39710087  0.04000691    -0.39100
N2029       N  0.84083644  0.46054545  0.52519388    -0.38500
N2030       N  0.70328911  0.31086959  0.97842928    -0.38500
C2031       C  0.71242542  0.45350533  0.61972302    -0.05200
C2032       C  0.73548892  0.45297982  0.65076129    -0.02300
C2033       C  0.72100175  0.44169679  0.68401049     0.02700
C2034       C  0.68360777  0.43157723  0.68587339    -0.05200
C2035       C  0.66104644  0.43157518  0.65430754    -0.02300
C2036       C  0.67565676  0.44181504  0.62136012     0.02700
C2037       C  0.77397101  0.46369732  0.64831481     0.37300
C2038       C  0.62198494  0.42284809  0.65532810     0.37300
C2039       C  0.65236931  0.44075528  0.58914567     0.35700
C2040       C  0.74377922  0.44226672  0.71639631     0.35700
N2041       N  0.63378331  0.43905026  0.56366055    -0.39100
N2042       N  0.76187989  0.44297279  0.74228953    -0.39100
N2043       N  0.59052333  0.41758098  0.65589658    -0.38500
N2044       N  0.80459967  0.47239697  0.64616465    -0.38500
C2045       C  0.85943246  0.05116312  0.58065237    -0.05200
C2046       C  0.85529566  0.04254620  0.54349234    -0.02300
C2047       C  0.81976396  0.04415164  0.52780054     0.02700
C2048       C  0.78916178  0.04903139  0.55061509    -0.05200
C2049       C  0.79559664  0.07305081  0.57943713    -0.02300
C2050       C  0.82996118  0.07062520  0.59731960     0.02700
C2051       C  0.88741516  0.03591300  0.52101021     0.37300
C2052       C  0.76554171  0.09493412  0.59358065     0.37300
C2053       C  0.83612204  0.09186859  0.62979737     0.35700
C2054       C  0.81335979  0.53955159  0.49206882     0.35700
N2055       N  0.84125642  0.10962887  0.65512368    -0.39100
N2056       N  0.81232508  0.53968361  0.46084354    -0.39100
N2057       N  0.74163074  0.11228837  0.60529620    -0.38500
N2058       N  0.91306416  0.03090015  0.50312217    -0.38500
C2059       C  0.85219957  0.99953843  0.82223588    -0.05200
C2060       C  0.82090253  0.02091031  0.83168042    -0.02300
C2061       C  0.79372291  0.00657963  0.85391455     0.02700
C2062       C  0.79979582  0.47691510  0.87910284    -0.05200
C2063       C  0.83238260  0.45685604  0.87124835    -0.02300
C2064       C  0.86351711  0.47511640  0.85793504     0.02700
C2065       C  0.81743190  0.05888445  0.82139805     0.37300
C2066       C  0.83342245  0.41754866  0.87560778     0.37300
C2067       C  0.89705291  0.45532554  0.84911915     0.35700
C2068       C  0.76025713  0.02777603  0.86063319     0.35700
N2069       N  0.92419317  0.43984904  0.84264519    -0.39100
N2070       N  0.73369177  0.04477256  0.86562885    -0.39100
N2071       N  0.83417897  0.38618566  0.87898054    -0.38500
N2072       N  0.81294411  0.08932877  0.81457118    -0.38500
C2073       C  0.88024380  0.09517281  0.73759507    -0.05200
C2074       C  0.90411261  0.12383152  0.72742865    -0.02300
C2075       C  0.89082925  0.15972790  0.72750530     0.02700
C2076       C  0.85262232  0.16682083  0.73004318    -0.05200
C2077       C  0.82811761  0.13803511  0.73624117    -0.02300
C2078       C  0.84154521  0.10197416  0.73710630     0.02700
C2079       C  0.94350999  0.11739168  0.72282672     0.37300
C2080       C  0.78987906  0.14555935  0.74504293     0.37300
C2081       C  0.81515437  0.07241936  0.73531294     0.35700
C2082       C  0.91658462  0.18997979  0.72874849     0.35700
N2083       N  0.79358818  0.04927280  0.73340096    -0.39100
N2084       N  0.93650653  0.21447386  0.73090495    -0.39100
N2085       N  0.75990122  0.15140225  0.75417242    -0.38500
N2086       N  0.97513741  0.11334294  0.71999966    -0.38500
C2087       C  0.97210026  0.11621538  0.91469860    -0.05200
C2088       C  0.93527288  0.12463900  0.90521532    -0.02300
C2089       C  0.92160470  0.11265363  0.87182744     0.02700
C2090       C  0.94115000  0.08483444  0.85348808    -0.05200
C2091       C  0.97613402  0.07386811  0.86541447    -0.02300
C2092       C  0.99378380  0.09505558  0.89094359     0.02700
C2093       C  0.91003802  0.14060370  0.93081655     0.37300
C2094       C  0.98867247  0.03679123  0.85998058     0.37300
C2095       C  0.53282067  0.09476984  0.89329749     0.35700
C2096       C  0.88707677  0.12751023  0.85799790     0.35700
N2097       N  0.56456102  0.09838137  0.89446603    -0.39100
N2098       N  0.86019425  0.14115840  0.84738292    -0.39100
N2099       N  0.49506460  0.00525720  0.85788603    -0.38500
N2100       N  0.88867367  0.15150333  0.95122726    -0.38500
C2101       C  0.93811891  0.32763856  0.82375089    -0.05200
C2102       C  0.96525517  0.34572350  0.84408812    -0.02300
C2103       C  0.97226956  0.33510677  0.87991728     0.02700
C2104       C  0.95309866  0.30509347  0.89531990    -0.05200
C2105       C  0.93101434  0.28317308  0.87263405    -0.02300
C2106       C  0.92482738  0.29356738  0.83655514     0.02700
C2107       C  0.98675289  0.37464425  0.82811872     0.37300
C2108       C  0.91404534  0.25028992  0.88631358     0.37300
C2109       C  0.90406781  0.26934442  0.81290217     0.35700
C2110       C  0.00003818  0.35521705  0.90001468     0.35700
N2111       N  0.88725300  0.25008211  0.79429999    -0.39100
N2112       N  0.02212250  0.37262705  0.91463050    -0.39100
N2113       N  0.90064074  0.22381501  0.89674791    -0.38500
N2114       N  0.00457085  0.39734220  0.81560312    -0.38500
C2115       C  0.54836920  0.25143150  0.95272466    -0.05200
C2116       C  0.56079641  0.26075464  0.91735984    -0.02300
C2117       C  0.59862321  0.26349218  0.91015707     0.02700
C2118       C  0.62461910  0.24959174  0.93474253    -0.05200
C2119       C  0.61316883  0.24117316  0.96998724    -0.02300
C2120       C  0.57539604  0.24119543  0.97886469     0.02700
C2121       C  0.53625632  0.26508904  0.88649324     0.37300
C2122       C  0.64079866  0.23244787  0.99711212     0.37300
C2123       C  0.56483168  0.22983741  0.01479752     0.35700
C2124       C  0.61031435  0.28051572  0.87693727     0.35700
N2125       N  0.55735773  0.22124720  0.04384455    -0.39100
N2126       N  0.61841713  0.29458476  0.85032537    -0.39100
N2127       N  0.66300762  0.22584021  0.01872076    -0.38500
N2128       N  0.51866867  0.26716690  0.86034052    -0.38500
C2129       C  0.50753586  0.44452299  0.51036820    -0.05200
C2130       C  0.52596328  0.42789542  0.48126804    -0.02300
C2131       C  0.53689807  0.36713302  0.99690140     0.02700
C2132       C  0.50024040  0.35516037  0.00371974    -0.05200
C2133       C  0.46276570  0.39436122  0.50975376    -0.02300
C2134       C  0.47355148  0.42916597  0.52202226     0.02700
C2135       C  0.55329075  0.44740266  0.46080072     0.37300
C2136       C  0.93060603  0.37671822  0.52519217     0.37300
C2137       C  0.44948390  0.44886457  0.54662462     0.35700
C2138       C  0.56377329  0.34444018  0.97832490     0.35700
N2139       N  0.93029498  0.46351567  0.56707158    -0.39100
N2140       N  0.58669898  0.32803106  0.96383686    -0.39100
N2141       N  0.90469057  0.36344937  0.53755033    -0.38500
N2142       N  0.61482985  0.42294831  0.99075515    -0.38500
C2143       C  0.52628511  0.27881241  0.66597614    -0.05200
C2144       C  0.52954158  0.24265539  0.67697586    -0.02300
C2145       C  0.56312036  0.23051815  0.69187355     0.02700
C2146       C  0.59335969  0.25524104  0.69548731    -0.05200
C2147       C  0.58990081  0.29116855  0.68207372    -0.02300
C2148       C  0.55713212  0.30183802  0.66521972     0.02700
C2149       C  0.99894846  0.21801539  0.66994554     0.37300
C2150       C  0.62063029  0.31645378  0.68321558     0.37300
C2151       C  0.55558227  0.33483323  0.64365096     0.35700
C2152       C  0.56598581  0.19243895  0.70222202     0.35700
N2153       N  0.55307960  0.35991099  0.62493040    -0.39100
N2154       N  0.56721339  0.16216345  0.71091011    -0.39100
N2155       N  0.64553404  0.33606795  0.68268988    -0.38500
N2156       N  0.97547167  0.19771935  0.66337360    -0.38500
C2157       C  0.65918210  0.15669617  0.75395793    -0.05200
C2158       C  0.66581642  0.12191319  0.73726998    -0.02300
C2159       C  0.64487380  0.09129632  0.74744423     0.02700
C2160       C  0.61705127  0.09512125  0.77324726    -0.05200
C2161       C  0.61139271  0.12863656  0.79045913    -0.02300
C2162       C  0.63544688  0.15752040  0.78434133     0.02700
C2163       C  0.69385885  0.11605694  0.71011468     0.37300
C2164       C  0.57855191  0.13454076  0.81207297     0.37300
C2165       C  0.63214810  0.18926369  0.80747868     0.35700
C2166       C  0.65067829  0.05607225  0.73029970     0.35700
N2167       N  0.62643060  0.21449549  0.82535642    -0.39100
N2168       N  0.65503274  0.02814015  0.71632285    -0.39100
N2169       N  0.55170308  0.14056715  0.82783070    -0.38500
N2170       N  0.71613156  0.11004691  0.68857871    -0.38500
C2171       C  0.69634918  0.20879084  0.64180323    -0.05200
C2172       C  0.71416823  0.23401778  0.61924225    -0.02300
C2173       C  0.71482735  0.22780107  0.58192788     0.02700
C2174       C  0.70113738  0.19461310  0.56777964    -0.05200
C2175       C  0.67684545  0.17421908  0.58862314    -0.02300
C2176       C  0.67520053  0.18036728  0.62582012     0.02700
C2177       C  0.72948966  0.26741652  0.63403329     0.37300
C2178       C  0.65141276  0.14922404  0.57145256     0.37300
C2179       C  0.64910837  0.15927640  0.64658664     0.35700
C2180       C  0.72963297  0.25520956  0.55791523     0.35700
N2181       N  0.62774719  0.14194209  0.66187471    -0.39100
N2182       N  0.74112629  0.27724141  0.53880551    -0.39100
N2183       N  0.62986054  0.13013155  0.55830923    -0.38500
N2184       N  0.74115307  0.29441307  0.64550859    -0.38500
C2185       C  0.78521664  0.66418633  0.02580811     0.80400
N2186       N  0.75878019  0.68479549  0.04048944    -0.77900
C2187       C  0.72345775  0.67470347  0.04186280     0.82800
N2188       N  0.71379439  0.64216713  0.02738393    -0.77900
C2189       C  0.73903030  0.62039985  0.01048719     0.82900
N2190       N  0.77580869  0.63117835  0.00992422    -0.79600
C2191       C  0.59841045  0.53129889  0.34529890     0.80400
N2192       N  0.61441912  0.55528639  0.32331911    -0.77900
C2193       C  0.59998775  0.56344628  0.29095537     0.82800
N2194       N  0.56862704  0.54712085  0.27940261    -0.77900
C2195       C  0.55198400  0.52109270  0.29967226     0.82900
N2196       N  0.56678082  0.51329315  0.33356502    -0.79600
C2197       C  0.95910414  0.84976304  0.16283119     0.80400
N2198       N  0.94094980  0.84258721  0.13051674    -0.77900
C2199       C  0.94577354  0.80888970  0.11446792     0.82800
N2200       N  0.97050107  0.78521870  0.12905665    -0.77900
C2201       C  0.48628785  0.79187009  0.16243209     0.82900
N2202       N  0.47926286  0.82354153  0.17928402    -0.79600
C2203       C  0.68380389  0.72005598  0.17876514     0.03300
C2204       C  0.69067556  0.69659027  0.20779226    -0.11700
C2205       C  0.66371742  0.69247116  0.23475390     0.00800
C2206       C  0.63444006  0.71823982  0.23522257    -0.11400
C2207       C  0.62852096  0.74198938  0.20672683     0.03300
C2208       C  0.65461710  0.74443997  0.17985042    -0.10800
H2209       H  0.71414114  0.67870160  0.20589750     0.08900
H2210       H  0.61153234  0.71593146  0.25339464     0.06400
H2211       H  0.64794053  0.75962947  0.15552742     0.06200
O2212       O  0.76652963  0.80660544  0.23233506    -0.85200
O2213       O  0.69280203  0.82145710  0.25828946    -0.82200
C2214       C  0.66713544  0.83692083  0.27510044     0.98300
O2215       O  0.66668221  0.83182783  0.30901688    -0.82300
O2216       O  0.69324580  0.75771385  0.32309497    -0.84900
C2217       C  0.71129881  0.73247308  0.33821357     1.02800
O2218       O  0.74599015  0.73189530  0.33272273    -0.77700
O2219       O  0.75745053  0.75550739  0.25951701    -0.77900
C2220       C  0.77119013  0.77196577  0.23315893     1.02700
O2221       O  0.79057670  0.86082754  0.28208385    -0.85200
O2222       O  0.72135239  0.88054606  0.30699936    -0.82300
C2223       C  0.71795178  0.88244295  0.34167376     0.98300
O2224       O  0.71877581  0.85407137  0.36047493    -0.82300
O2225       O  0.74354329  0.78601825  0.37932640    -0.84900
C2226       C  0.77902560  0.78322033  0.38134817     1.02800
O2227       O  0.79852526  0.78408185  0.35343131    -0.77700
O2228       O  0.81552790  0.80570323  0.28398566    -0.77900
C2229       C  0.81839246  0.84042264  0.27952168     1.02700
Cr2230     Cr  0.74183196  0.84000450  0.27216414     1.93700
Cr2231     Cr  0.70766503  0.80642192  0.34040574     1.93200
Cr2232     Cr  0.77689249  0.77162722  0.30660352     1.39100
O2233       O  0.74375988  0.80768281  0.30797786    -1.22900
C2234       C  0.54087997  0.98985942  0.09493929     0.80400
N2235       N  0.52085179  0.97242773  0.06980722    -0.77900
C2236       C  0.53054791  0.97095872  0.03506989     0.82800
N2237       N  0.56219457  0.98750133  0.02502474    -0.77900
C2238       C  0.58168424  0.50588386  0.04994378     0.82900
N2239       N  0.56817507  0.51352880  0.08411310    -0.79600
C2240       C  0.67858895  0.66977723  0.41376560     0.80400
N2241       N  0.65903188  0.69460272  0.43232011    -0.77900
C2242       C  0.65566278  0.72926897  0.42144299     0.82800
N2243       N  0.67344176  0.73983777  0.39129587    -0.77900
C2244       C  0.69462065  0.71627290  0.37181111     0.82900
N2245       N  0.69668586  0.68016359  0.38258242    -0.79600
C2246       C  0.85575565  0.85584326  0.27509404     0.80400
N2247       N  0.88166997  0.83659099  0.29240326    -0.77900
C2248       C  0.91677792  0.84715578  0.29514973     0.82800
N2249       N  0.92660086  0.87912991  0.27950471    -0.77900
C2250       C  0.90161717  0.89958016  0.26012301     0.82900
N2251       N  0.86521304  0.88809904  0.25827182    -0.79600
C2252       C  0.48834097  0.82416835  0.48504507     0.03300
C2253       C  0.50899578  0.79249328  0.49116509    -0.12900
C2254       C  0.50961819  0.76487737  0.46479656     0.00800
C2255       C  0.98123051  0.76332104  0.44044451    -0.11400
C2256       C  0.96301765  0.79600690  0.43166068     0.03300
C2257       C  0.96419608  0.82505943  0.45608616    -0.10800
H2258       H  0.53045563  0.79389772  0.51157004     0.08900
H2259       H  0.98044121  0.74078792  0.42157725     0.06400
H2260       H  0.95163784  0.85084746  0.44853039     0.06200
O2261       O  0.64620166  0.98475260  0.43258655    -0.85200
O2262       O  0.63108530  0.50455458  0.50588012    -0.82200
C2263       C  0.61264296  0.52506437  0.03014142     0.98300
O2264       O  0.62069590  0.55874697  0.03282037    -0.82300
O2265       O  0.70032310  0.56987570  0.50863788    -0.84900
C2266       C  0.72590237  0.58499836  0.49130436     1.02800
O2267       O  0.72530003  0.58059430  0.45729020    -0.77700
O2268       O  0.69983567  0.50818477  0.44366349    -0.77900
C2269       C  0.68168649  0.98395225  0.43214958     1.02700
O2270       O  0.59418754  0.53287078  0.40978163    -0.85200
O2271       O  0.57459018  0.55675245  0.48000279    -0.82300
C2272       C  0.57295420  0.59110239  0.48823118     0.98300
O2273       O  0.60161552  0.61020522  0.48748436    -0.82300
O2274       O  0.67097975  0.62812965  0.46228861    -0.84900
C2275       C  0.67482248  0.63213725  0.42796316     1.02800
O2276       O  0.67241939  0.60513669  0.40694093    -0.77700
O2277       O  0.64990972  0.53498442  0.38624193    -0.77900
C2278       C  0.61469955  0.53133408  0.38252406     1.02700
Cr2279     Cr  0.61431627  0.52138927  0.45806124     1.93700
Cr2280     Cr  0.65033791  0.58814241  0.49566563     1.93200
Cr2281     Cr  0.68410721  0.55629548  0.42605587     1.39100
O2282       O  0.64784810  0.55695443  0.45851067    -1.22900
C2283       C  0.53619294  0.60952634  0.49207188     0.80400
N2284       N  0.52481653  0.64523677  0.00699434    -0.77900
C2285       C  0.99592880  0.66160530  0.50204005     0.82800
N2286       N  0.97618521  0.65130525  0.47246181    -0.77900
C2287       C  0.98434991  0.62039175  0.45461849     0.82900
N2288       N  0.51230032  0.59788802  0.46715858    -0.79600
C2289       C  0.84666340  0.74139733  0.16667640     0.80400
N2290       N  0.81676290  0.76138335  0.17983727    -0.77900
C2291       C  0.80066086  0.75106755  0.21217257     0.82800
N2292       N  0.81399004  0.72060732  0.22909996    -0.77900
C2293       C  0.84327404  0.70181276  0.21586532     0.82900
N2294       N  0.85903985  0.71262155  0.18523047    -0.79600
C2295       C  0.72115785  0.91754835  0.36150098     0.80400
N2296       N  0.69587041  0.93115748  0.38649242    -0.77900
C2297       C  0.70640480  0.95936580  0.40929627     0.82800
N2298       N  0.74169251  0.97153659  0.40712975    -0.77900
C2299       C  0.76578751  0.95857031  0.38254991     0.82900
N2300       N  0.75516247  0.93213592  0.35971740    -0.79600
C2301       C  0.92157926  0.56350612  0.32618847     0.03300
C2302       C  0.90583470  0.52979245  0.33011802    -0.12900
C2303       C  0.88257471  0.51659584  0.30331561     0.00800
C2304       C  0.88108093  0.53372695  0.26941553    -0.11400
C2305       C  0.89696961  0.56853833  0.26535272     0.03300
C2306       C  0.91727816  0.58288334  0.29459369    -0.10800
H2307       H  0.90631045  0.51721706  0.35662339     0.08900
H2308       H  0.86359709  0.52218530  0.24867674     0.06400
H2309       H  0.92698571  0.61076033  0.29469367     0.06200
O2310       O  0.97582112  0.69882594  0.05374018    -0.85200
O2311       O  0.94371545  0.77026077  0.06473941    -0.82200
C2312       C  0.92667056  0.79470228  0.08152607     0.98300
O2313       O  0.89167332  0.79390675  0.07914288    -0.82300
O2314       O  0.87856807  0.76772994  0.00751070    -0.84900
C2315       C  0.87465291  0.75206530  0.47971079     1.02800
O2316       O  0.87822424  0.71764136  0.47809788    -0.77700
O2317       O  0.94555686  0.70586581  0.00387789    -0.77900
C2318       C  0.97447566  0.69477844  0.01958952     1.02700
O2319       O  0.92838778  0.67482705  0.10823690    -0.85200
O2320       O  0.89893992  0.74185448  0.12660161    -0.82300
C2321       C  0.86333181  0.74352050  0.13012285     0.98300
O2322       O  0.84251222  0.74048803  0.10293590    -0.82300
O2323       O  0.82396082  0.71546597  0.03450754    -0.84900
C2324       C  0.82250244  0.68054887  0.03055732     1.02800
O2325       O  0.85151638  0.66149246  0.03300409    -0.77700
O2326       O  0.92533459  0.64856289  0.05438199    -0.77900
C2327       C  0.93035469  0.64683333  0.08886558     1.02700
Cr2328     Cr  0.93454355  0.72230963  0.08631438     1.93700
Cr2329     Cr  0.86159385  0.75216078  0.05514617     1.93200
Cr2330     Cr  0.89866762  0.68523806  0.02060814     1.39100
O2331       O  0.89655868  0.71774523  0.05607198    -1.22900
C2332       C  0.92662007  0.61132637  0.10585006     0.80400
N2333       N  0.94501722  0.59704209  0.13552856    -0.77900
C2334       C  0.93124712  0.56576623  0.15135994     0.82800
N2335       N  0.89861305  0.55158872  0.13837998    -0.77900
C2336       C  0.88148482  0.56719904  0.10949789     0.82900
N2337       N  0.89610226  0.59579792  0.09378920    -0.79600
C2338       C  0.60636768  0.91747271  0.24558484     0.80400
N2339       N  0.63237248  0.93577832  0.22785744    -0.77900
C2340       C  0.66515722  0.92066559  0.22049464     0.82800
N2341       N  0.67454619  0.88840210  0.23546870    -0.77900
C2342       C  0.65103819  0.87076602  0.25784258     0.82900
N2343       N  0.61534128  0.88427666  0.26148302    -0.79600
C2344       C  0.79738053  0.78551026  0.41687749     0.80400
N2345       N  0.78635723  0.81432218  0.43657019    -0.77900
C2346       C  0.80438748  0.82360959  0.46680094     0.82800
N2347       N  0.83368306  0.80378405  0.47818382    -0.77900
C2348       C  0.84533581  0.77377666  0.46003153     0.82900
N2349       N  0.82726501  0.76443416  0.42835065    -0.79600
C2350       C  0.74253594  0.95208242  0.02678033     0.03300
C2351       C  0.72837005  0.94258532  0.06002148    -0.12900
C2352       C  0.72443719  0.96855452  0.08671125     0.00800
C2353       C  0.73601851  0.00398656  0.08119346    -0.11400
C2354       C  0.75452460  0.01361955  0.04924403     0.03300
C2355       C  0.75375128  0.98798114  0.02055820    -0.10800
H2356       H  0.72161121  0.91440432  0.06577373     0.08900
H2357       H  0.73388480  0.02191608  0.10409535     0.06400
H2358       H  0.76544492  0.99363383  0.99464056     0.06200
O2359       O  0.98710208  0.54348034  0.18336111    -0.85200
O2360       O  0.50375832  0.51961558  0.25602335    -0.82200
C2361       C  0.52233685  0.00072408  0.28017305     0.98300
O2362       O  0.51665386  0.96662818  0.28290922    -0.82300
O2363       O  0.94240916  0.94964788  0.25850165    -0.84900
C2364       C  0.91692843  0.93328567  0.24207258     1.02800
O2365       O  0.91567794  0.93746913  0.20787876    -0.77700
O2366       O  0.93499600  0.51637947  0.19193960    -0.77900
C2367       C  0.95199151  0.54289066  0.17889109     1.02700
O2368       O  0.54599526  0.98585997  0.15950330    -0.85200
O2369       O  0.56510494  0.96633143  0.23034632    -0.82300
C2370       C  0.56861378  0.93220658  0.23822043     0.98300
O2371       O  0.54120482  0.91134613  0.23613937    -0.82300
O2372       O  0.97076623  0.89046746  0.21246282    -0.84900
C2373       C  0.96513723  0.88651754  0.17827953     1.02800
O2374       O  0.96803269  0.91313300  0.15734500    -0.77700
O2375       O  0.99029371  0.98165973  0.13533483    -0.77900
C2376       C  0.52534764  0.98630984  0.13203391     1.02700
Cr2377     Cr  0.52476294  0.99908128  0.20666770     1.93700
Cr2378     Cr  0.49184111  0.93198100  0.24496077     1.93200
Cr2379     Cr  0.95564594  0.96167186  0.17497695     1.39100
O2380       O  0.49228806  0.96272294  0.20756514    -1.22900
C2381       C  0.79354568  0.85656917  0.48591808    -0.05200
C2382       C  0.75735435  0.86033955  0.49941480    -0.02300
C2383       C  0.74809440  0.89116455  0.51996798     0.02700
C2384       C  0.75338582  0.92162347  0.00320397    -0.05200
C2385       C  0.79134775  0.91325052  0.99934524    -0.02300
C2386       C  0.80214219  0.87888407  0.98685084     0.02700
C2387       C  0.72985532  0.83243294  0.49252249     0.37300
C2388       C  0.81988886  0.93824006  0.01101149     0.37300
C2389       C  0.84029815  0.87248611  0.97687238     0.35700
C2390       C  0.71146407  0.89436880  0.53545634     0.35700
N2391       N  0.87031835  0.86708705  0.96776605    -0.39100
N2392       N  0.68234942  0.89625073  0.54811011    -0.39100
N2393       N  0.84378588  0.95681797  0.02045617    -0.38500
N2394       N  0.70788283  0.81028740  0.48682398    -0.38500
C2395       C  0.70997120  0.95734867  0.12155319    -0.05200
C2396       C  0.73313229  0.95594971  0.15248806    -0.02300
C2397       C  0.71907998  0.94260543  0.18511387     0.02700
C2398       C  0.68185533  0.93207130  0.18667741    -0.05200
C2399       C  0.65901774  0.93328480  0.15536340    -0.02300
C2400       C  0.67328265  0.94536754  0.12289338     0.02700
C2401       C  0.77147908  0.96713993  0.15045618     0.37300
C2402       C  0.62053489  0.92216506  0.15597766     0.37300
C2403       C  0.65034179  0.94416629  0.09053750     0.35700
C2404       C  0.74248907  0.93994695  0.21697103     0.35700
N2405       N  0.63199575  0.94187760  0.06495906    -0.39100
N2406       N  0.76100900  0.93750922  0.24247918    -0.39100
N2407       N  0.58962662  0.91432043  0.15627393    -0.38500
N2408       N  0.80206087  0.97611608  0.14887835    -0.38500
C2409       C  0.84686712  0.55611859  0.09275722    -0.05200
C2410       C  0.84888369  0.54257766  0.05687415    -0.02300
C2411       C  0.81630383  0.54051828  0.03614916     0.02700
C2412       C  0.78238280  0.54522740  0.05375943    -0.05200
C2413       C  0.78218436  0.57178769  0.08104179    -0.02300
C2414       C  0.81416263  0.57525690  0.10263491     0.02700
C2415       C  0.88442682  0.53549460  0.04004574     0.37300
C2416       C  0.74743533  0.58815835  0.09173533     0.37300
C2417       C  0.81426273  0.60130251  0.13204020     0.35700
C2418       C  0.81353289  0.03949353  0.99120824     0.35700
N2419       N  0.81391459  0.62316425  0.15455130    -0.39100
N2420       N  0.81203634  0.04024747  0.96000828    -0.39100
N2421       N  0.71955725  0.60078564  0.10062496    -0.38500
N2422       N  0.91283416  0.53050511  0.02664296    -0.38500
C2423       C  0.85034355  0.49780218  0.31789248    -0.05200
C2424       C  0.81846800  0.51916140  0.32561064    -0.02300
C2425       C  0.79122862  0.50574620  0.34836782     0.02700
C2426       C  0.80065404  0.97768993  0.37578787    -0.05200
C2427       C  0.83362359  0.95795988  0.36849520    -0.02300
C2428       C  0.86467588  0.97638453  0.35505757     0.02700
C2429       C  0.81467351  0.55660234  0.31369944     0.37300
C2430       C  0.83515994  0.91872263  0.37336770     0.37300
C2431       C  0.89843166  0.95671282  0.34667605     0.35700
C2432       C  0.75786024  0.52725948  0.35461785     0.35700
N2433       N  0.92563640  0.94124275  0.34041671    -0.39100
N2434       N  0.73145103  0.54454518  0.35945682    -0.39100
N2435       N  0.83638913  0.88739682  0.37698239    -0.38500
N2436       N  0.80977576  0.58674397  0.30587150    -0.38500
C2437       C  0.88448672  0.59529252  0.23739889    -0.05200
C2438       C  0.90879434  0.62439467  0.22990904    -0.02300
C2439       C  0.89511614  0.66024019  0.22954543     0.02700
C2440       C  0.85669486  0.66695554  0.23058312    -0.05200
C2441       C  0.83222921  0.63760624  0.23382808    -0.02300
C2442       C  0.84598616  0.60167471  0.23355504     0.02700
C2443       C  0.94844565  0.61803113  0.22791500     0.37300
C2444       C  0.79324598  0.64425451  0.23971885     0.37300
C2445       C  0.82029879  0.57190515  0.22816955     0.35700
C2446       C  0.92045654  0.69072765  0.23177673     0.35700
N2447       N  0.79932975  0.54857623  0.22358452    -0.39100
N2448       N  0.93996697  0.71548334  0.23456159    -0.39100
N2449       N  0.76247251  0.64946073  0.24636002    -0.38500
N2450       N  0.98014414  0.61352862  0.22686390    -0.38500
C2451       C  0.96790499  0.61149646  0.41959068    -0.05200
C2452       C  0.93057968  0.61873155  0.41102847    -0.02300
C2453       C  0.91639853  0.60661915  0.37783013     0.02700
C2454       C  0.93720608  0.58116140  0.35768197    -0.05200
C2455       C  0.97256734  0.57080583  0.36893356    -0.02300
C2456       C  0.98980313  0.59136528  0.39517928     0.02700
C2457       C  0.90583711  0.63495779  0.43690227     0.37300
C2458       C  0.98587818  0.53420974  0.36222679     0.37300
C2459       C  0.52974008  0.59262401  0.39643769     0.35700
C2460       C  0.87972648  0.61805638  0.36632402     0.35700
N2461       N  0.56126784  0.59775398  0.39672527    -0.39100
N2462       N  0.85060128  0.62839810  0.35800055    -0.39100
N2463       N  0.49488305  0.50237631  0.35934662    -0.38500
N2464       N  0.88469849  0.64649124  0.45718141    -0.38500
C2465       C  0.93983586  0.82691545  0.32199335    -0.05200
C2466       C  0.96810383  0.84457488  0.34130000    -0.02300
C2467       C  0.97703525  0.83302130  0.37640431     0.02700
C2468       C  0.95644067  0.80476343  0.39301816    -0.05200
C2469       C  0.93321614  0.78307364  0.37135191    -0.02300
C2470       C  0.92670785  0.79294814  0.33523013     0.02700
C2471       C  0.98829253  0.87442044  0.32548635     0.37300
C2472       C  0.91584679  0.75083174  0.38599381     0.37300
C2473       C  0.90534979  0.76864574  0.31222279     0.35700
C2474       C  0.00886501  0.84921535  0.39414045     0.35700
N2475       N  0.88803454  0.74927701  0.29419063    -0.39100
N2476       N  0.03486764  0.86268927  0.40652594    -0.39100
N2477       N  0.90232390  0.72477794  0.39729028    -0.38500
N2478       N  0.00511699  0.89808346  0.31345318    -0.38500
C2479       C  0.54714460  0.75186544  0.45326704    -0.05200
C2480       C  0.55963354  0.75954054  0.41756633    -0.02300
C2481       C  0.59741923  0.76254843  0.41048728     0.02700
C2482       C  0.62341060  0.74949186  0.43556646    -0.05200
C2483       C  0.61178532  0.74186920  0.47095676    -0.02300
C2484       C  0.57398381  0.74234545  0.47975475     0.02700
C2485       C  0.53533103  0.76087844  0.38624912     0.37300
C2486       C  0.63927318  0.73483180  0.49863250     0.37300
C2487       C  0.56306472  0.73244058  0.51601467     0.35700
C2488       C  0.60901675  0.77861003  0.37674556     0.35700
N2489       N  0.55505572  0.72507174  0.54525363    -0.39100
N2490       N  0.61715195  0.79185795  0.34971539    -0.39100
N2491       N  0.66118583  0.73004477  0.52098115    -0.38500
N2492       N  0.51791999  0.76055998  0.35990229    -0.38500
C2493       C  0.51052018  0.94473353  0.01134683    -0.05200
C2494       C  0.52894407  0.92829813  0.98211920    -0.02300
C2495       C  0.53790026  0.87123456  0.49371203     0.02700
C2496       C  0.50123937  0.85929908  0.50015427    -0.05200
C2497       C  0.46581117  0.89479598  0.01072387    -0.02300
C2498       C  0.47664273  0.92939184  0.02312089     0.02700
C2499       C  0.55656037  0.94768061  0.96201275     0.37300
C2500       C  0.93351285  0.87835947  0.02624431     0.37300
C2501       C  0.45288361  0.94872429  0.04829607     0.35700
C2502       C  0.56589128  0.84713750  0.47870092     0.35700
N2503       N  0.93410691  0.96499583  0.06831415    -0.39100
N2504       N  0.58939333  0.82907016  0.46725742    -0.39100
N2505       N  0.90760410  0.86545823  0.03897038    -0.38500
N2506       N  0.61641394  0.92645327  0.48994175    -0.38500
C2507       C  0.52239097  0.77625491  0.16973395    -0.05200
C2508       C  0.52694912  0.74022973  0.18079216    -0.02300
C2509       C  0.56116920  0.72916679  0.19513943     0.02700
C2510       C  0.59080458  0.75471729  0.19780426    -0.05200
C2511       C  0.58613692  0.79027777  0.18385078    -0.02300
C2512       C  0.55274800  0.79987478  0.16760580     0.02700
C2513       C  0.99874150  0.71476440  0.17325689     0.37300
C2514       C  0.61610751  0.81642307  0.18393790     0.37300
C2515       C  0.54995743  0.83261906  0.14567312     0.35700
C2516       C  0.56534863  0.69127219  0.20580581     0.35700
N2517       N  0.54653466  0.85768191  0.12703942    -0.39100
N2518       N  0.56767606  0.66111955  0.21472605    -0.39100
N2519       N  0.64009632  0.83705333  0.18251800    -0.38500
N2520       N  0.97641421  0.69308671  0.16726168    -0.38500
C2521       C  0.65766941  0.65683858  0.25422532    -0.05200
C2522       C  0.66347345  0.62224613  0.23683988    -0.02300
C2523       C  0.64251346  0.59167268  0.24713291     0.02700
C2524       C  0.61512074  0.59545478  0.27338327    -0.05200
C2525       C  0.61029053  0.62876515  0.29121880    -0.02300
C2526       C  0.63465171  0.65738527  0.28510773     0.02700
C2527       C  0.69067099  0.61649904  0.20885491     0.37300
C2528       C  0.57829651  0.63463176  0.31404440     0.37300
C2529       C  0.63230980  0.68862358  0.30891609     0.35700
C2530       C  0.64818143  0.55642930  0.23000969     0.35700
N2531       N  0.62700612  0.71341044  0.32746898    -0.39100
N2532       N  0.65253623  0.52842911  0.21617755    -0.39100
N2533       N  0.55221834  0.64069405  0.33096924    -0.38500
N2534       N  0.71223140  0.61057739  0.18661610    -0.38500
C2535       C  0.69322296  0.70919234  0.14188545    -0.05200
C2536       C  0.71255505  0.73380246  0.12003178    -0.02300
C2537       C  0.71448406  0.72745024  0.08279254     0.02700
C2538       C  0.70038421  0.69455344  0.06819669    -0.05200
C2539       C  0.67466595  0.67493720  0.08823722    -0.02300
C2540       C  0.67186345  0.68131153  0.12534040     0.02700
C2541       C  0.72918708  0.76616032  0.13569769     0.37300
C2542       C  0.64998433  0.64951267  0.07061191     0.37300
C2543       C  0.64533045  0.66029136  0.14563691     0.35700
C2544       C  0.73187031  0.75402518  0.05957599     0.35700
N2545       N  0.62383831  0.64283573  0.16061380    -0.39100
N2546       N  0.74566788  0.77538222  0.04121746    -0.39100
N2547       N  0.62922598  0.62978893  0.05716378    -0.38500
N2548       N  0.74206992  0.79214756  0.14817145    -0.38500
C2549       C  0.78975346  0.66385819  0.51807043     0.80400
N2550       N  0.76454867  0.68342324  0.53548418    -0.77900
C2551       C  0.73037479  0.67194030  0.54149098     0.82800
N2552       N  0.72015351  0.63905067  0.52830328    -0.77900
C2553       C  0.74359560  0.61837569  0.50808079     0.82900
N2554       N  0.77975338  0.63033684  0.50342873    -0.79600
C2555       C  0.60301070  0.52990498  0.84249281     0.80400
N2556       N  0.62164763  0.55020105  0.81875129    -0.77900
C2557       C  0.60904205  0.55546991  0.78498703     0.82800
N2558       N  0.57678611  0.54027968  0.77427301    -0.77900
C2559       C  0.55784475  0.51770455  0.79641029     0.82900
N2560       N  0.57099422  0.51248611  0.83125438    -0.79600
C2561       C  0.96310466  0.85489622  0.65848660     0.80400
N2562       N  0.94285599  0.84356866  0.62860554    -0.77900
C2563       C  0.95165004  0.81041815  0.61288192     0.82800
N2564       N  0.98144307  0.79150114  0.62556920    -0.77900
C2565       C  0.49995075  0.80278831  0.65563728     0.82900
N2566       N  0.48934936  0.83347969  0.67220498    -0.79600
C2567       C  0.69356491  0.71825314  0.68089851     0.03300
C2568       C  0.69836538  0.69457150  0.71008896    -0.11700
C2569       C  0.66918060  0.68942253  0.73461022     0.00800
C2570       C  0.64015350  0.71578960  0.73348855    -0.11400
C2571       C  0.63746364  0.74148450  0.70596722     0.03300
C2572       C  0.66517241  0.74355765  0.68080127    -0.10800
H2573       H  0.72246947  0.67748115  0.70956091     0.08900
H2574       H  0.61570349  0.71358353  0.74955018     0.06400
H2575       H  0.66035626  0.75956319  0.65659229     0.06200
O2576       O  0.76524173  0.80752677  0.72944708    -0.85200
O2577       O  0.69068332  0.82302454  0.75446982    -0.82200
C2578       C  0.66457046  0.83774496  0.77142808     0.98300
O2579       O  0.66316904  0.83032609  0.80482068    -0.82300
O2580       O  0.69083650  0.75533229  0.81568512    -0.84900
C2581       C  0.70840659  0.73024748  0.83164876     1.02800
O2582       O  0.74341231  0.73042726  0.82788349    -0.77700
O2583       O  0.75599204  0.75624731  0.75624094    -0.77900
C2584       C  0.76964633  0.77277909  0.72998659     1.02700
O2585       O  0.78869765  0.86133813  0.78059617    -0.85200
O2586       O  0.71872648  0.87889368  0.80608264    -0.82300
C2587       C  0.71360704  0.87925410  0.84060902     0.98300
O2588       O  0.71310116  0.85021638  0.85831531    -0.82300
O2589       O  0.73835546  0.78189284  0.87458756    -0.84900
C2590       C  0.77370060  0.77960232  0.87835691     1.02800
O2591       O  0.79476763  0.78278162  0.85162435    -0.77700
O2592       O  0.81392837  0.80649658  0.78204156    -0.77900
C2593       C  0.81668663  0.84128733  0.77716254     1.02700
Cr2594     Cr  0.73987224  0.84026397  0.76985279     1.93700
Cr2595     Cr  0.70359802  0.80357443  0.83570024     1.93200
Cr2596     Cr  0.77475331  0.77141404  0.80362562     1.39100
O2597       O  0.74103796  0.80691615  0.80480813    -1.22900
C2598       C  0.53974198  0.99315752  0.59455000     0.80400
N2599       N  0.52432671  0.96873645  0.57229313    -0.77900
C2600       C  0.53657972  0.96310783  0.53884220     0.82800
N2601       N  0.56547341  0.98273245  0.52699618    -0.77900
C2602       C  0.58190183  0.50523336  0.54789953     0.82900
N2603       N  0.57109362  0.50682153  0.58371580    -0.79600
C2604       C  0.67617774  0.66985380  0.90972412     0.80400
N2605       N  0.65266281  0.69386159  0.92483179    -0.77900
C2606       C  0.64717907  0.72730399  0.91117415     0.82800
N2607       N  0.66630426  0.73720611  0.88160854    -0.77900
C2608       C  0.69032497  0.71428637  0.86483893     0.82900
N2609       N  0.69520159  0.67953563  0.87874725    -0.79600
C2610       C  0.85394505  0.85710106  0.76934176     0.80400
N2611       N  0.88179570  0.83580825  0.78067875    -0.77900
C2612       C  0.91717207  0.84646674  0.78048822     0.82800
N2613       N  0.92519087  0.87976244  0.76730984    -0.77900
C2614       C  0.89867896  0.90217095  0.75336466     0.82900
N2615       N  0.86191545  0.89124874  0.75504285    -0.79600
C2616       C  0.47676517  0.84006996  0.97167725     0.03300
C2617       C  0.50227581  0.81153166  0.97511685    -0.12900
C2618       C  0.50288833  0.78331302  0.94965630     0.00800
C2619       C  0.97293709  0.78035866  0.92668382    -0.11400
C2620       C  0.95059442  0.81109740  0.92005344     0.03300
C2621       C  0.95013768  0.83914458  0.94566831    -0.10800
H2622       H  0.52592550  0.81570486  0.99275818     0.08900
H2623       H  0.97342504  0.75868594  0.90687587     0.06400
H2624       H  0.93439309  0.86370704  0.93995413     0.06200
O2625       O  0.64893984  0.98149261  0.93439712    -0.85200
O2626       O  0.62586932  0.50813751  0.00374165    -0.82200
C2627       C  0.61687381  0.52144894  0.53188594     0.98300
O2628       O  0.62487575  0.55517512  0.53449296    -0.82300
O2629       O  0.69704921  0.57104049  0.00973519    -0.84900
C2630       C  0.72320442  0.58627973  0.99361505     1.02800
O2631       O  0.72404500  0.58160147  0.95971516    -0.77700
O2632       O  0.69649047  0.50903181  0.94784567    -0.77900
C2633       C  0.68413754  0.98140011  0.93211955     1.02700
O2634       O  0.59436814  0.53787359  0.90626918    -0.85200
O2635       O  0.57124248  0.56253169  0.97596593    -0.82300
C2636       C  0.57171369  0.59705551  0.98386019     0.98300
O2637       O  0.60163235  0.61393234  0.98454059    -0.82300
O2638       O  0.67066121  0.63005520  0.96065827    -0.84900
C2639       C  0.67489946  0.63290047  0.92614451     1.02800
O2640       O  0.67418547  0.60505357  0.90616559    -0.77700
O2641       O  0.65165775  0.53526594  0.88636276    -0.77900
C2642       C  0.61661774  0.53327035  0.88054012     1.02700
Cr2643     Cr  0.61126736  0.52549938  0.95566628     1.93700
Cr2644     Cr  0.64844469  0.59077163  0.99463041     1.93200
Cr2645     Cr  0.68395960  0.55691949  0.92738514     1.39100
O2646       O  0.64610967  0.55960917  0.95766076    -1.22900
C2647       C  0.53832072  0.62079262  0.98127994     0.80400
N2648       N  0.52821219  0.64148023  0.51100042    -0.77900
C2649       C  0.00175376  0.67360051  0.99636105     0.82800
N2650       N  0.99545377  0.67775888  0.96046285    -0.77900
C2651       C  0.00920411  0.65415918  0.93597086     0.82900
N2652       N  0.52936606  0.62596806  0.94687318    -0.79600
C2653       C  0.84027100  0.73682623  0.66076784     0.80400
N2654       N  0.81453536  0.76059712  0.67601922    -0.77900
C2655       C  0.79671544  0.75027772  0.70750899     0.82800
N2656       N  0.80607114  0.71753300  0.72262962    -0.77900
C2657       C  0.83112971  0.69491352  0.70730007     0.82900
N2658       N  0.84674037  0.70466003  0.67628348    -0.79600
C2659       C  0.71835887  0.91317251  0.86147350     0.80400
N2660       N  0.69478494  0.92761698  0.88745075    -0.77900
C2661       C  0.70737335  0.95584981  0.90926182     0.82800
N2662       N  0.74273666  0.96731841  0.90503203    -0.77900
C2663       C  0.76502869  0.95266190  0.87978534     0.82900
N2664       N  0.75242318  0.92644100  0.85811989    -0.79600
C2665       C  0.92989405  0.58371486  0.83390394     0.03300
C2666       C  0.91586566  0.55254712  0.84996308    -0.12900
C2667       C  0.88924310  0.53218321  0.83158404     0.00800
C2668       C  0.87897233  0.54137812  0.79601370    -0.11400
C2669       C  0.89161739  0.57402753  0.78107618     0.03300
C2670       C  0.91792663  0.59417792  0.80018016    -0.10800
H2671       H  0.92220952  0.54677264  0.87802535     0.08900
H2672       H  0.85723159  0.52623717  0.78254810     0.06400
H2673       H  0.92666472  0.62066347  0.79068116     0.06200
O2674       O  0.97739267  0.69408028  0.55734427    -0.85200
O2675       O  0.94795291  0.76547957  0.56865720    -0.82200
C2676       C  0.93088061  0.79115927  0.58335273     0.98300
O2677       O  0.89587882  0.79120697  0.57962057    -0.82300
O2678       O  0.88870875  0.76718243  0.50676118    -0.84900
C2679       C  0.86394269  0.75028420  0.98206362     1.02800
O2680       O  0.86938752  0.71584990  0.98173288    -0.77700
O2681       O  0.95143857  0.70790389  0.50712572    -0.77900
C2682       C  0.97765039  0.69204680  0.52306164     1.02700
O2683       O  0.92510882  0.66909923  0.60704213    -0.85200
O2684       O  0.89628261  0.73772055  0.62561127    -0.82300
C2685       C  0.86046472  0.74061836  0.62614512     0.98300
O2686       O  0.84206771  0.73914655  0.59723970    -0.82300
O2687       O  0.82891649  0.71546367  0.52700436    -0.84900
C2688       C  0.82712400  0.68045419  0.52224159     1.02800
O2689       O  0.85577151  0.66105301  0.52533105    -0.77700
O2690       O  0.92651201  0.64581707  0.55175878    -0.77900
C2691       C  0.92922928  0.64212150  0.58634719     1.02700
Cr2692     Cr  0.93453290  0.71763962  0.58774725     1.93700
Cr2693     Cr  0.86596899  0.75114987  0.55183691     1.93200
Cr2694     Cr  0.90372100  0.68503522  0.51774887     1.39100
O2695       O  0.89897642  0.71538507  0.55467620    -1.22900
C2696       C  0.92832113  0.60496942  0.60118612     0.80400
N2697       N  0.94607947  0.59153620  0.63169333    -0.77900
C2698       C  0.93476219  0.55848227  0.64586711     0.82800
N2699       N  0.90437057  0.54189344  0.63089728    -0.77900
C2700       C  0.88830221  0.55568355  0.60054836     0.82900
N2701       N  0.90105162  0.58613307  0.58615976    -0.79600
C2702       C  0.60403804  0.91927614  0.74218538     0.80400
N2703       N  0.63121276  0.93976851  0.72887701    -0.77900
C2704       C  0.66581800  0.92712365  0.72576364     0.82800
N2705       N  0.67472655  0.89409956  0.73941405    -0.77900
C2706       C  0.64925663  0.87328525  0.75641265     0.82900
N2707       N  0.61265769  0.88521520  0.75664009    -0.79600
C2708       C  0.78883121  0.78048431  0.91521755     0.80400
N2709       N  0.77393454  0.80730207  0.93485795    -0.77900
C2710       C  0.78754307  0.81631922  0.96709485     0.82800
N2711       N  0.81697588  0.79777923  0.98072453    -0.77900
C2712       C  0.83260953  0.76942025  0.96242877     0.82900
N2713       N  0.81870100  0.76076956  0.92864409    -0.79600
C2714       C  0.76688264  0.94923040  0.54989191     0.03300
C2715       C  0.76084369  0.94318238  0.58629285    -0.12900
C2716       C  0.75528486  0.97263237  0.60918427     0.00800
C2717       C  0.75963544  0.00800059  0.59668410    -0.11400
C2718       C  0.76980605  0.01452975  0.56056646     0.03300
C2719       C  0.76948357  0.98471664  0.53665161    -0.10800
H2720       H  0.75772694  0.91561372  0.59630083     0.08900
H2721       H  0.75551589  0.02985403  0.61584810     0.06400
H2722       H  0.77478906  0.98822048  0.50826921     0.06200
O2723       O  0.99020167  0.53802654  0.67973456    -0.85200
O2724       O  0.50868210  0.51662627  0.75367955    -0.82200
C2725       C  0.52065990  0.00276057  0.77978431     0.98300
O2726       O  0.51443292  0.96857845  0.78119441    -0.82300
O2727       O  0.93963217  0.95241437  0.75593771    -0.84900
C2728       C  0.91363976  0.93760221  0.73840207     1.02800
O2729       O  0.91288416  0.94367109  0.70455664    -0.77700
O2730       O  0.93786863  0.51203245  0.69033439    -0.77900
C2731       C  0.95507620  0.53735824  0.67524811     1.02700
O2732       O  0.54369301  0.99131992  0.65869952    -0.85200
O2733       O  0.56318063  0.96931277  0.72850356    -0.82300
C2734       C  0.56636938  0.93479195  0.73454088     0.98300
O2735       O  0.53854631  0.91461773  0.73170310    -0.82300
O2736       O  0.96864423  0.89525535  0.70840742    -0.84900
C2737       C  0.96360319  0.89192426  0.67422051     1.02800
O2738       O  0.96484022  0.91930088  0.65392838    -0.77700
O2739       O  0.98846319  0.98849363  0.63413038    -0.77900
C2740       C  0.52330348  0.99254981  0.63110781     1.02700
Cr2741     Cr  0.52309010  0.00336647  0.70610173     1.93700
Cr2742     Cr  0.48915774  0.93546242  0.74174908     1.93200
Cr2743     Cr  0.95360616  0.96798481  0.67309627     1.39100
O2744       O  0.48982741  0.96756085  0.70559076    -1.22900
C2745       C  0.77560752  0.85149448  0.98171002    -0.05200
C2746       C  0.73753148  0.86025097  0.98347278    -0.02300
C2747       C  0.72648696  0.89568655  0.99312389     0.02700
C2748       C  0.77501652  0.91810813  0.52644789    -0.05200
C2749       C  0.81089080  0.91438725  0.51223665    -0.02300
C2750       C  0.81969694  0.88433610  0.49079445     0.02700
C2751       C  0.70970594  0.83288642  0.97555612     0.37300
C2752       C  0.83972646  0.93979354  0.52201708     0.37300
C2753       C  0.85504823  0.88282575  0.47246801     0.35700
C2754       C  0.68743297  0.90506396  0.99410000     0.35700
N2755       N  0.88299914  0.88208349  0.45747941    -0.39100
N2756       N  0.65620659  0.91219159  0.99448593    -0.39100
N2757       N  0.86315134  0.95939977  0.53034202    -0.38500
N2758       N  0.68746640  0.81119401  0.96912548    -0.38500
C2759       C  0.73331625  0.96655479  0.64128006    -0.05200
C2760       C  0.74961341  0.95997090  0.67525976    -0.02300
C2761       C  0.72708015  0.94964313  0.70423039     0.02700
C2762       C  0.68900566  0.94377924  0.69814645    -0.05200
C2763       C  0.67295991  0.95149217  0.66388669    -0.02300
C2764       C  0.69499492  0.96379172  0.63600243     0.02700
C2765       C  0.78938764  0.96216826  0.67984641     0.37300
C2766       C  0.63422553  0.94503634  0.65573592     0.37300
C2767       C  0.67863928  0.97100936  0.60067352     0.35700
C2768       C  0.74272678  0.94598030  0.74017758     0.35700
N2769       N  0.66621091  0.97629597  0.57231987    -0.39100
N2770       N  0.75523515  0.94381650  0.76893568    -0.39100
N2771       N  0.60356033  0.94060041  0.64797939    -0.38500
N2772       N  0.82118172  0.96347385  0.68350151    -0.38500
C2773       C  0.85204974  0.54549423  0.58624329    -0.05200
C2774       C  0.84959529  0.53817558  0.54875793    -0.02300
C2775       C  0.81500456  0.53946694  0.53114652     0.02700
C2776       C  0.78259708  0.54407779  0.55170602    -0.05200
C2777       C  0.78680823  0.56277580  0.58476831    -0.02300
C2778       C  0.82069817  0.56050617  0.60354458     0.02700
C2779       C  0.88286331  0.53155716  0.52780471     0.37300
C2780       C  0.75596268  0.58314641  0.59960202     0.37300
C2781       C  0.82398541  0.57649306  0.63925932     0.35700
C2782       C  0.81447950  0.04101014  0.48920166     0.35700
N2783       N  0.82665782  0.58944779  0.66763351    -0.39100
N2784       N  0.81049717  0.03847786  0.45829669    -0.39100
N2785       N  0.73134597  0.59907247  0.61186032    -0.38500
N2786       N  0.90919683  0.52636588  0.51093458    -0.38500
C2787       C  0.86194095  0.51304068  0.85329390    -0.05200
C2788       C  0.83149942  0.53334749  0.86601287    -0.02300
C2789       C  0.79981108  0.51535359  0.87727193     0.02700
C2790       C  0.79798740  0.97112350  0.86763696    -0.05200
C2791       C  0.83009330  0.95041593  0.86018651    -0.02300
C2792       C  0.85765050  0.96503700  0.83821274     0.02700
C2793       C  0.83166695  0.57294758  0.86549894     0.37300
C2794       C  0.83432787  0.91377201  0.87447599     0.37300
C2795       C  0.89275910  0.94609138  0.83464977     0.35700
C2796       C  0.76619878  0.53662085  0.88217859     0.35700
N2797       N  0.92117610  0.93153997  0.83295248    -0.39100
N2798       N  0.73969027  0.55417249  0.88499150    -0.39100
N2799       N  0.83767674  0.88443055  0.88549339    -0.38500
N2800       N  0.83071193  0.60445872  0.86550153    -0.38500
C2801       C  0.87209464  0.59389440  0.75161940    -0.05200
C2802       C  0.89425821  0.61522273  0.72865384    -0.02300
C2803       C  0.88151311  0.64943235  0.71744901     0.02700
C2804       C  0.84459366  0.66068028  0.72418842    -0.05200
C2805       C  0.82146302  0.63820783  0.74479859    -0.02300
C2806       C  0.83452807  0.60403122  0.75683408     0.02700
C2807       C  0.93319493  0.60631282  0.72354013     0.37300
C2808       C  0.78615865  0.65171150  0.75766636     0.37300
C2809       C  0.80937339  0.58051003  0.77606291     0.35700
C2810       C  0.90857857  0.67552316  0.70480809     0.35700
N2811       N  0.78853261  0.56194932  0.79067943    -0.39100
N2812       N  0.92983267  0.69694829  0.69567283    -0.39100
N2813       N  0.75872168  0.66258144  0.76959877    -0.38500
N2814       N  0.96476701  0.60153182  0.72123102    -0.38500
C2815       C  0.99619681  0.65276809  0.89822343    -0.05200
C2816       C  0.95964349  0.66377630  0.88975134    -0.02300
C2817       C  0.93924844  0.64349769  0.86460180     0.02700
C2818       C  0.95318647  0.60912341  0.85385244    -0.05200
C2819       C  0.99004568  0.59970587  0.86095373    -0.02300
C2820       C  0.01310831  0.62571112  0.87656906     0.02700
C2821       C  0.94049881  0.69035731  0.91149014     0.37300
C2822       C  0.00089809  0.56175383  0.86031490     0.37300
C2823       C  0.55337344  0.62052457  0.87670956     0.35700
C2824       C  0.90283181  0.65610085  0.85326965     0.35700
N2825       N  0.58518635  0.61673647  0.87720044    -0.39100
N2826       N  0.87425836  0.66695621  0.84374879    -0.39100
N2827       N  0.50678109  0.53073356  0.86307478    -0.38500
N2828       N  0.92521118  0.71029115  0.93044546    -0.38500
C2829       C  0.94250448  0.82744187  0.80572628    -0.05200
C2830       C  0.96485924  0.84993146  0.82694277    -0.02300
C2831       C  0.96207339  0.84876754  0.86456518     0.02700
C2832       C  0.94282026  0.81963462  0.88138312    -0.05200
C2833       C  0.92571428  0.79322743  0.85902075    -0.02300
C2834       C  0.92880419  0.79533700  0.82132146     0.02700
C2835       C  0.99117013  0.87387406  0.81014182     0.37300
C2836       C  0.90053339  0.76698604  0.87378336     0.37300
C2837       C  0.91298744  0.76725536  0.79825154     0.35700
C2838       C  0.97694214  0.87950669  0.88438333     0.35700
N2839       N  0.90011914  0.74513632  0.77977741    -0.39100
N2840       N  0.98747769  0.90592819  0.89800979    -0.39100
N2841       N  0.87863755  0.74634545  0.88316129    -0.38500
N2842       N  0.01340892  0.89252455  0.79796954    -0.38500
C2843       C  0.53981346  0.76740378  0.94013059    -0.05200
C2844       C  0.55395709  0.77211054  0.90470856    -0.02300
C2845       C  0.59119474  0.76501529  0.89721985     0.02700
C2846       C  0.61400343  0.74797708  0.92317954    -0.05200
C2847       C  0.60058557  0.74368305  0.95871623    -0.02300
C2848       C  0.56397432  0.75383373  0.96730389     0.02700
C2849       C  0.53103604  0.78248184  0.87414219     0.37300
C2850       C  0.62469211  0.72940814  0.98684279     0.37300
C2851       C  0.55142691  0.74986419  0.00418388     0.35700
C2852       C  0.60475391  0.77425991  0.86163189     0.35700
N2853       N  0.54214936  0.74723702  0.03386815    -0.39100
N2854       N  0.61385202  0.78185826  0.83280814    -0.39100
N2855       N  0.64378756  0.71794981  0.00933157    -0.38500
N2856       N  0.51515153  0.78850089  0.84763131    -0.38500
C2857       C  0.52289216  0.93052590  0.51959650    -0.05200
C2858       C  0.54837323  0.90688713  0.50260297    -0.02300
C2859       C  0.51926050  0.89316578  0.97090058     0.02700
C2860       C  0.48775187  0.87613442  0.98552355    -0.05200
C2861       C  0.47565342  0.88305536  0.51649378    -0.02300
C2862       C  0.48609930  0.91872946  0.52555568     0.02700
C2863       C  0.58621857  0.91805780  0.49569351     0.37300
C2864       C  0.93957190  0.86964118  0.52609258     0.37300
C2865       C  0.45912210  0.94286746  0.54221212     0.35700
C2866       C  0.54232191  0.87463846  0.94442802     0.35700
N2867       N  0.93895841  0.96118083  0.55811403    -0.39100
N2868       N  0.56099174  0.86032376  0.92340690    -0.39100
N2869       N  0.91060805  0.85914706  0.53387835    -0.38500
N2870       N  0.57778405  0.96264982  0.94442322    -0.38500
C2871       C  0.53528007  0.78635361  0.66678320    -0.05200
C2872       C  0.53890428  0.74856703  0.67137946    -0.02300
C2873       C  0.57102420  0.73427109  0.68756661     0.02700
C2874       C  0.60132927  0.75755087  0.69564208    -0.05200
C2875       C  0.59905095  0.79490951  0.68661383    -0.02300
C2876       C  0.56570705  0.80943445  0.67371669     0.02700
C2877       C  0.01116017  0.72431600  0.65813958     0.37300
C2878       C  0.63170220  0.81778048  0.68645222     0.37300
C2879       C  0.56350164  0.84798917  0.66519977     0.35700
C2880       C  0.57282548  0.69527883  0.69413522     0.35700
N2881       N  0.56056524  0.87859653  0.65838891    -0.39100
N2882       N  0.57309290  0.66427356  0.69982053    -0.39100
N2883       N  0.65770733  0.83576411  0.68373015    -0.38500
N2884       N  0.98952727  0.70409519  0.64685935    -0.38500
C2885       C  0.66201561  0.65294821  0.75287252    -0.05200
C2886       C  0.67646653  0.61838487  0.74037182    -0.02300
C2887       C  0.65875076  0.58558203  0.75023824     0.02700
C2888       C  0.62387068  0.58706027  0.76645177    -0.05200
C2889       C  0.60915488  0.62067180  0.77681037    -0.02300
C2890       C  0.63177885  0.65116264  0.77695977     0.02700
C2891       C  0.70872295  0.61448403  0.71776242     0.37300
C2892       C  0.57068584  0.62400452  0.78724312     0.37300
C2893       C  0.62425601  0.67906980  0.80357583     0.35700
C2894       C  0.67560878  0.55027026  0.74290089     0.35700
N2895       N  0.61641299  0.70053420  0.82509221    -0.39100
N2896       N  0.68903690  0.52209767  0.73732970    -0.39100
N2897       N  0.53957050  0.62692629  0.79379900    -0.38500
N2898       N  0.73425571  0.60970231  0.69963009    -0.38500
C2899       C  0.70366349  0.70659381  0.64443671    -0.05200
C2900       C  0.72242966  0.73117309  0.62204769    -0.02300
C2901       C  0.72578088  0.72347382  0.58526957     0.02700
C2902       C  0.71069736  0.69072787  0.57092779    -0.05200
C2903       C  0.68511487  0.67136007  0.59135721    -0.02300
C2904       C  0.68328622  0.67758969  0.62852355     0.02700
C2905       C  0.73604064  0.76559746  0.63613924     0.37300
C2906       C  0.65917834  0.64681807  0.57399733     0.37300
C2907       C  0.65878386  0.65496185  0.64953181     0.35700
C2908       C  0.74536384  0.74910112  0.56255043     0.35700
N2909       N  0.63915028  0.63595609  0.66508230    -0.39100
N2910       N  0.76169144  0.76931289  0.54492936    -0.39100
N2911       N  0.63754361  0.62801267  0.56048860    -0.38500
N2912       N  0.74612392  0.79368395  0.64639267    -0.38500
loop_ 
_geom_bond_atom_site_label_1 
_geom_bond_atom_site_label_2 
_geom_bond_distance 
_geom_bond_site_symmetry_2 
_ccdc_geom_bond_type 
C1            N2   1.330       .  A
C1            N6   1.389       .  A
C1          C140   1.485       .  S
N2            C3   1.330       .  A
C3            N4   1.352       .  A
C3          C354   1.474       .  S
N4            C5   1.361       .  A
C5            N6   1.390       .  A
C5          C446   1.512   1_554  S
C7            N8   1.343       .  A
C7           N12   1.387       .  A
C7           C94   1.498       .  S
N8            C9   1.343       .  A
C9           N10   1.353       .  A
C9          C340   1.459       .  S
N10          C11   1.361       .  A
C11          N12   1.386       .  A
C11         C905   1.517       .  S
C13          N14   1.389       .  A
C13        N1474   1.337       .  A
C13         C189   1.476       .  S
N14          C15   1.386       .  A
C15          N16   1.356       .  A
C15         C128   1.502       .  S
N16        C1473   1.342       .  A
C17          N18   1.334   1_455  A
C17        N1472   1.342   1_455  A
C17         C323   1.452       .  S
N18        C1469   1.337       .  A
C19         C351   1.464       .  S
C19          C20   1.396       .  A
C19          C24   1.374       .  A
C20          C21   1.412       .  A
C20          H25   1.067       .  S
C21         C337   1.526       .  S
C21          C22   1.425       .  A
C22          C23   1.398       .  A
C22          H26   1.074       .  S
C23         C326   1.477       .  S
C23          C24   1.377       .  A
C24          H27   1.086       .  S
O28         Cr46   2.127       .  S
O28          C36   1.283       .  A
O29         Cr46   1.974       .  S
O29          C30   1.257       .  A
C30         C158   1.516       .  S
C30          O31   1.268       .  A
O31         Cr47   2.086       .  S
O32         Cr47   1.968       .  S
O32          C33   1.257       .  A
C33          C60   1.508       .  S
C33          O34   1.270       .  A
O34         Cr48   2.088       .  S
O35         Cr48   1.960       .  S
O35          C36   1.254       .  A
C36         C107   1.527       .  S
O37         Cr46   1.974       .  S
O37          C45   1.256       .  A
O38         Cr46   2.094       .  S
O38          C39   1.294       .  A
C39         C111   1.472       .  S
C39          O40   1.253       .  A
O40         Cr47   1.935       .  S
O41         Cr47   2.066       .  S
O41          C42   1.287       .  A
C42         C160   1.462       .  S
C42          O43   1.259       .  A
O43         Cr48   1.953       .  S
O44         Cr48   2.074       .  S
O44          C45   1.290       .  A
C45          C62   1.496       .  S
Cr46         O49   1.780       .  S
Cr47         O49   1.784       .  S
Cr48         O49   1.780       .  S
C50          N51   1.338       .  A
C50         N783   1.393       .  A
C50         C192   1.484       .  S
N51          C52   1.335       .  A
C52          N53   1.352       .  A
C52         C309   1.482       .  S
N53         C782   1.361       .  A
C54          N55   1.391       .  A
C54         N781   1.361   1_545  A
C54          C79   1.521       .  S
N55         C778   1.393   1_545  A
C56          N57   1.343       .  A
C56          N61   1.388       .  A
C56          C91   1.479       .  S
N57          C58   1.340       .  A
C58          N59   1.350       .  A
C58         C298   1.480       .  S
N59          C60   1.357       .  A
C60          N61   1.382       .  A
C62          N63   1.337       .  A
C62          N67   1.391       .  A
N63          C64   1.339       .  A
C64          N65   1.351       .  A
C64         C281   1.477       .  S
N65          C66   1.358       .  A
C66          N67   1.390       .  A
C66         C180   1.512       .  S
C68         C312   1.482       .  S
C68          C69   1.395   1_655  A
C68        C1529   1.400       .  A
C69          C70   1.399       .  A
C69          H74   1.084       .  S
C70         C295   1.495       .  S
C70        C1527   1.402   1_455  A
C71          C72   1.403       .  A
C71        C1526   1.401       .  A
C71          H75   1.082       .  S
C72         C284   1.491       .  S
C72          C73   1.399       .  A
C73        C1524   1.399       .  A
C73          H76   1.075       .  S
O77        Cr823   2.107       .  S
O77          C85   1.276       .  A
O78         Cr95   1.963       .  S
O78         C443   1.254       .  A
C79          O80   1.272       .  A
C79         O442   1.257       .  A
O80        Cr460   2.100   1_554  S
O81         Cr96   1.973       .  S
O81          C82   1.258       .  A
C82         C369   1.509       .  S
C82          O83   1.269       .  A
O83         Cr97   2.081       .  S
O84         Cr97   1.961       .  S
O84         C813   1.256   1_545  A
C85         C113   1.515       .  S
C85         O812   1.257       .  A
O86         Cr95   1.980       .  S
O86          C94   1.263       .  A
O87         Cr95   2.127       .  S
O87          C88   1.301       .  A
C88          C99   1.493       .  S
C88          O89   1.251       .  A
O89         Cr96   1.929       .  S
O90         Cr96   2.078       .  S
O90          C91   1.292       .  A
C91          O92   1.259       .  A
O92         Cr97   1.956       .  S
O93         Cr97   2.073       .  S
O93          C94   1.287       .  A
Cr95        O805   2.129   1_545  S
Cr95         O98   1.779       .  S
Cr96        O444   2.100       .  S
Cr96         O98   1.785       .  S
Cr97         O98   1.780       .  S
C99         N104   1.326       .  A
C99         N464   1.397       .  A
N100        C463   1.395   1_554  A
N100       C1921   1.392   1_455  A
C101        N102   1.357       .  A
C101       N1920   1.397       .  A
C101        C498   1.526       .  S
N102        C103   1.349       .  A
C103       N1560   1.336       .  A
C103        C267   1.472       .  S
N104       C1559   1.337       .  A
C105        N106   1.395       .  A
C105        N110   1.330       .  A
C105        C137   1.491       .  S
N106        C107   1.394       .  A
C107        N108   1.366       .  A
N108        C109   1.351       .  A
C109        N110   1.334       .  A
C109        C256   1.475       .  S
C111        N112   1.392       .  A
C111        N116   1.331       .  A
N112        C113   1.389       .  A
C113        N114   1.359       .  A
N114        C115   1.347       .  A
C115        N116   1.329       .  A
C115        C242   1.448       .  S
C117        C270   1.457       .  S
C117        C118   1.390       .  A
C117        C122   1.376       .  A
C118        C119   1.394       .  A
C118        H123   1.085       .  S
C119        C239   1.467       .  S
C119        C120   1.408       .  A
C120        C121   1.405       .  A
C120        H124   1.082       .  S
C121        C253   1.493       .  S
C121        C122   1.399       .  A
C122        H125   1.083       .  S
O126       Cr144   2.106       .  S
O126        C134   1.274       .  A
O127       Cr144   1.962       .  S
O127        C128   1.251       .  A
C128        O129   1.271       .  A
O129       Cr145   2.092       .  S
O130       Cr145   1.965       .  S
O130        C495   1.252   1_554  A
C131        C164   1.516       .  S
C131        O132   1.279       .  A
C131        O494   1.253       .  A
O132       Cr510   2.107       .  S
O133       Cr146   1.965       .  S
O133        C134   1.253       .  A
C134        C465   1.515       .  S
O135       Cr144   1.959       .  S
O135        C143   1.260       .  A
O136       Cr144   2.103       .  S
O136        C137   1.299       .  A
C137        O138   1.257       .  A
O138       Cr145   1.955       .  S
O139       Cr145   2.077       .  S
O139        C140   1.295       .  A
C140        O141   1.258       .  A
O141       Cr146   1.966       .  S
O142       Cr146   2.080       .  S
O142        C143   1.293       .  A
C143        C148   1.477       .  S
Cr144       O147   1.771       .  S
Cr145       O147   1.775       .  S
Cr146       O496   2.099   1_554  S
Cr146       O147   1.773       .  S
C148        N149   1.388       .  A
C148        N153   1.327       .  A
N149        C150   1.390       .  A
C150        N151   1.371       .  A
C150        C183   1.524       .  S
N151        C152   1.359       .  A
C152        N153   1.327       .  A
C152        C225   1.461       .  S
C154        N155   1.342       .  A
C154        N159   1.394       .  A
C154        C186   1.504       .  S
N155        C156   1.341       .  A
C156        N157   1.347       .  A
C156        C214   1.466       .  S
N157        C158   1.355       .  A
C158        N159   1.390       .  A
C160        N161   1.332       .  A
C160        N165   1.383       .  A
N161        C162   1.328       .  A
C162        N163   1.359       .  A
C162        C197   1.464       .  S
N163        C164   1.368       .  A
C164        N165   1.382       .  A
C166        C200   1.458       .  S
C166        C167   1.390       .  A
C166        C171   1.394       .  A
C167        C168   1.388       .  A
C167        H172   1.085       .  S
C168        C211   1.453       .  S
C168        C169   1.385       .  A
C169        C170   1.410       .  A
C169        H173   1.081       .  S
C170        C956   1.490       .  S
C170        C171   1.402       .  A
C171        H174   1.080       .  S
O175      Cr2377   2.104   1_545  S
O175        C183   1.280       .  A
O176       Cr921   1.969   1_545  S
O176        C905   1.259       .  A
C177        C739   1.526       .  S
C177        O178   1.277       .  A
C177        O904   1.256       .  A
O178       Cr194   2.109   1_455  S
O179      Cr1650   1.982       .  S
O179        C180   1.262       .  A
C180        O181   1.272       .  A
O181       Cr195   2.081       .  S
O182       Cr923   1.966   1_545  S
O182        C183   1.257       .  A
O184       Cr193   1.959       .  S
O184        C192   1.256       .  A
O185       Cr193   2.089       .  S
O185        C186   1.294       .  A
C186        O187   1.257       .  A
O187       Cr194   1.975   1_455  S
O188      Cr1650   2.067       .  S
O188        C189   1.287       .  A
C189        O190   1.257       .  A
O190       Cr195   1.956       .  S
O191       Cr195   2.072       .  S
O191       C1648   1.289       .  A
C192       O1647   1.289   1_455  A
Cr193      O2359   2.097   1_455  S
Cr193       O904   1.965       .  S
Cr193       O196   1.783   1_455  S
Cr194      O1635   1.983       .  S
Cr194      O1644   2.069       .  S
Cr194       O196   1.784       .  S
Cr195       O910   1.963       .  S
Cr195      O1652   1.789       .  S
O196      Cr1651   1.789       .  S
C197        C198   1.418       .  A
C197        C566   1.400       .  A
C198        C199   1.404       .  A
C198        C203   1.453       .  S
C199        C564   1.409       .  A
C199        C206   1.452       .  S
C200        C201   1.410       .  A
C200        C563   1.408       .  A
C201        C202   1.392   1_554  A
C201        C204   1.448       .  S
C202        C561   1.403       .  A
C202        C205   1.453       .  S
C203        N210   1.158       .  T
C204        N209   1.155       .  T
C205        N207   1.157       .  T
C206        N208   1.157       .  T
C211        C212   1.405       .  A
C211        C216   1.401       .  A
C212        C213   1.407       .  A
C212        C217   1.450       .  S
C213        C214   1.413       .  A
C213        C220   1.449       .  S
C214        C215   1.421       .  A
C215        C216   1.386       .  A
C215        C218   1.452       .  S
C216        C219   1.456       .  S
C217        N224   1.157       .  T
C218        N223   1.155       .  T
C219        N221   1.156       .  T
C220        N222   1.157       .  T
C225        C226   1.416       .  A
C225        C230   1.414       .  A
C226        C227   1.406       .  A
C226        C231   1.454       .  S
C227        C228   1.411       .  A
C227        C962   1.449   1_554  S
C228        C898   1.510       .  S
C228        C229   1.413       .  A
C229        C230   1.406       .  A
C229        C232   1.450       .  S
C230        C233   1.452       .  S
C231        N238   1.157       .  T
C232        N237   1.157       .  T
C233        N235   1.157       .  T
C234        C955   1.447   1_556  S
C234        N236   1.157       .  T
C239        C240   1.410       .  A
C239        C972   1.404   1_545  A
C240        C241   1.396       .  A
C240        C245   1.452       .  S
C241        C970   1.412   1_545  A
C241        C248   1.453       .  S
C242        C243   1.411       .  A
C242        C969   1.403       .  A
C243        C244   1.401       .  A
C243        C246   1.453       .  S
C244        C967   1.412       .  A
C244        C247   1.449       .  S
C245        N252   1.156       .  T
C246        N251   1.157       .  T
C247        N249   1.156       .  T
C248        N250   1.157       .  T
C253        C254   1.416       .  A
C253        C258   1.425       .  A
C254        C255   1.395       .  A
C254        C259   1.454       .  S
C255        C256   1.411       .  A
C255        C262   1.454       .  S
C256        C257   1.405       .  A
C257        C258   1.409       .  A
C257        C260   1.449       .  S
C258        C261   1.449       .  S
C259        N266   1.157       .  T
C260        N265   1.157       .  T
C261        N263   1.158       .  T
C262        N264   1.156       .  T
C267        C268   1.410       .  A
C267        C272   1.412       .  A
C268        C269   1.401       .  A
C268        C273   1.440       .  S
C269        C270   1.414       .  A
C269        C276   1.450       .  S
C270        C271   1.396       .  A
C271        C272   1.391       .  A
C271        C274   1.444       .  S
C272       C1731   1.452       .  S
C273        N280   1.154       .  T
C274       N1735   1.156       .  T
C275       C1728   1.453       .  S
C275        N277   1.157       .  T
C276        N278   1.157       .  T
N279       C1730   1.156       .  T
C281        C282   1.395       .  A
C281        C286   1.409       .  A
C282        C283   1.398       .  A
C282        C287   1.446       .  S
C283        C284   1.425       .  A
C283        C290   1.447       .  S
C284        C285   1.415       .  A
C285        C286   1.406       .  A
C285        C288   1.442       .  S
C286        C289   1.453       .  S
C287        N294   1.155       .  T
C288        N293   1.156       .  T
C289        N291   1.157       .  T
C290        N292   1.157       .  T
C295        C296   1.423       .  A
C295        C300   1.415       .  A
C296        C297   1.400       .  A
C296        C301   1.446       .  S
C297        C298   1.408       .  A
C297        C304   1.454       .  S
C298        C299   1.414       .  A
C299        C300   1.408       .  A
C299        C302   1.450       .  S
C300        C303   1.451       .  S
C301        N308   1.154       .  T
C302        N307   1.156       .  T
C303        N305   1.157       .  T
C304        N306   1.156       .  T
C309        C310   1.410       .  A
C309        C314   1.422   1_455  A
C310        C675   1.402   1_554  A
C310        C315   1.455   1_554  S
C311        C312   1.417   1_455  A
C311        C674   1.400       .  A
C311        C318   1.455       .  S
C312        C677   1.406       .  A
C313        C314   1.405       .  A
C313        C676   1.407   1_655  A
C313       C1772   1.451       .  S
C314        C317   1.453       .  S
C315        N686   1.157       .  T
C316       C1769   1.451       .  S
C316        N321   1.157       .  T
C317       N1775   1.157       .  T
C318        N320   1.157       .  T
N319       C1773   1.157       .  T
N322        C679   1.154       .  T
C323        C324   1.399       .  A
C323        C328   1.405       .  A
C324        C325   1.401       .  A
C324       C1785   1.451       .  S
C325        C326   1.424       .  A
C325        C332   1.452       .  S
C326        C327   1.420       .  A
C327        C328   1.395       .  A
C327        C330   1.454       .  S
C328        C331   1.455       .  S
C329       C1780   1.451       .  S
C329        N336   1.157       .  T
C330        N335   1.157       .  T
C331        N333   1.157       .  T
C332        N334   1.157       .  T
C337        C338   1.444       .  A
C337        C342   1.416       .  A
C338        C339   1.418       .  A
C338        C343   1.448       .  S
C339        C340   1.403       .  A
C339        C346   1.453       .  S
C340        C341   1.393       .  A
C341        C342   1.390       .  A
C341        C344   1.450       .  S
C342        C345   1.442       .  S
C343        N350   1.158       .  T
C344        N349   1.156       .  T
C345        N347   1.154       .  T
C346        N348   1.157       .  T
C351        C352   1.410       .  A
C351        C356   1.421       .  A
C352        C353   1.398       .  A
C352        C357   1.453       .  S
C353        C354   1.419       .  A
C353        C360   1.454       .  S
C354        C355   1.399       .  A
C355        C356   1.398       .  A
C355        C358   1.447       .  S
C356        C359   1.452       .  S
C357        N364   1.157       .  T
C358        N363   1.155       .  T
C359        N361   1.157       .  T
C360        N362   1.157       .  T
C365        N366   1.334       .  A
C365        N370   1.387       .  A
C365        C504   1.487       .  S
N366        C367   1.334       .  A
C367        N368   1.353       .  A
C367        C718   1.474       .  S
N368        C369   1.361       .  A
C369        N370   1.388       .  A
C371        N372   1.340       .  A
C371        N376   1.392       .  A
C371        C458   1.502       .  S
N372        C373   1.340       .  A
C373        N374   1.350       .  A
C373        C704   1.456       .  S
N374        C375   1.361       .  A
C375        N376   1.393       .  A
C375       C1269   1.526       .  S
C377        N378   1.385       .  A
C377       N1838   1.337       .  A
C377        C553   1.473       .  S
N378        C379   1.380       .  A
C379        N380   1.353       .  A
C379        C492   1.489       .  S
N380       C1837   1.341       .  A
C381       N1836   1.341       .  A
C381        N382   1.337       .  A
C381        C687   1.444   1_655  S
N382       C1833   1.336       .  A
C383        C715   1.467       .  S
C383        C384   1.401       .  A
C383        C388   1.380       .  A
C384        C385   1.413       .  A
C384        H389   1.071       .  S
C385        C701   1.513       .  S
C385        C386   1.414       .  A
C386        C387   1.384       .  A
C386        H390   1.076       .  S
C387        C690   1.473       .  S
C387        C388   1.380       .  A
C388        H391   1.086       .  S
O392       Cr410   2.113       .  S
O392        C400   1.279       .  A
O393       Cr410   1.964       .  S
O393        C394   1.252       .  A
C394        C522   1.509       .  S
C394        O395   1.272       .  A
O395       Cr411   2.093       .  S
O396       Cr411   1.971       .  S
O396        C397   1.259       .  A
C397        C424   1.512       .  S
C397        O398   1.271       .  A
O398       Cr412   2.085       .  S
O399       Cr412   1.966       .  S
O399        C400   1.256       .  A
C400        C471   1.521       .  S
O401       Cr410   1.956       .  S
O401        C409   1.254       .  A
O402       Cr410   2.101       .  S
O402        C403   1.293       .  A
C403        C475   1.485       .  S
C403        O404   1.255       .  A
O404       Cr411   1.942       .  S
O405       Cr411   2.071       .  S
O405        C406   1.289       .  A
C406        C524   1.474       .  S
C406        O407   1.258       .  A
O407       Cr412   1.957       .  S
O408       Cr412   2.061       .  S
O408        C409   1.289       .  A
C409        C426   1.475       .  S
Cr410       O413   1.783       .  S
Cr411       O413   1.779       .  S
Cr412       O413   1.778       .  S
C414        N415   1.341       .  A
C414       N1147   1.391       .  A
C414        C556   1.494       .  S
N415        C416   1.340       .  A
C416        N417   1.358       .  A
C416        C673   1.496       .  S
N417       C1146   1.364       .  A
C418       N1145   1.359   1_545  A
C418        N419   1.389       .  A
C418        C443   1.516       .  S
N419       C1142   1.392   1_545  A
C420        N421   1.338       .  A
C420        N425   1.389       .  A
C420        C455   1.489       .  S
N421        C422   1.338       .  A
C422        N423   1.351       .  A
C422        C662   1.474       .  S
N423        C424   1.360       .  A
C424        N425   1.388       .  A
C426        N427   1.332       .  A
C426        N431   1.383       .  A
N427        C428   1.332       .  A
C428        N429   1.362       .  A
C428        C645   1.491       .  S
N429        C430   1.371       .  A
C430        N431   1.383       .  A
C430        C544   1.515       .  S
C432        C676   1.485   1_656  S
C432        C433   1.395   1_655  A
C432       C1893   1.398       .  A
C433        C434   1.405       .  A
C433        H438   1.080   1_556  S
C434        C659   1.502       .  S
C434       C1891   1.400   1_455  A
C435       C1890   1.400       .  A
C435        C436   1.404       .  A
C435        H439   1.082       .  S
C436        C648   1.491       .  S
C436        C437   1.398       .  A
C437       C1888   1.398       .  A
C437        H440   1.082       .  S
O441      Cr1187   2.123       .  S
O441        C449   1.282       .  A
O442       Cr459   1.974   1_554  S
C443        O444   1.272       .  A
O445       Cr460   1.975   1_554  S
O445        C446   1.260   1_554  A
C446        O447   1.271       .  A
O447       Cr461   2.084       .  S
O448       Cr461   1.965       .  S
O448       C1177   1.256   1_545  A
C449        C477   1.522       .  S
C449       O1176   1.257       .  A
O450       Cr459   1.979       .  S
O450        C458   1.261       .  A
O451       Cr459   2.102       .  S
O451        C452   1.297       .  A
C452        C463   1.495       .  S
C452        O453   1.256       .  A
O453       Cr460   1.953       .  S
O454       Cr460   2.073       .  S
O454        C455   1.292       .  A
C455        O456   1.261       .  A
O456       Cr461   1.971       .  S
O457       Cr461   2.077       .  S
O457        C458   1.288       .  A
Cr459      O1169   2.110   1_545  S
Cr459       O462   1.784       .  S
Cr460       O462   1.788       .  S
Cr461       O462   1.786       .  S
C463        N468   1.329       .  A
N464       C1557   1.397       .  A
C465       N1556   1.392       .  A
C465        N466   1.358   1_554  A
N466        C467   1.344       .  A
C467       N1924   1.336       .  A
C467        C631   1.461       .  S
N468       C1923   1.336   1_455  A
C469        N470   1.393       .  A
C469        N474   1.334       .  A
C469        C501   1.490       .  S
N470        C471   1.391       .  A
C471        N472   1.364       .  A
N472        C473   1.351       .  A
C473        N474   1.338       .  A
C473        C620   1.467       .  S
C475        N476   1.396       .  A
C475        N480   1.345       .  A
N476        C477   1.388       .  A
C477        N478   1.355       .  A
N478        C479   1.346       .  A
C479        N480   1.340       .  A
C479        C606   1.465       .  S
C481        C634   1.448       .  S
C481        C482   1.377       .  A
C481        C486   1.376       .  A
C482        C483   1.385       .  A
C482        H487   1.086       .  S
C483        C603   1.465   1_545  S
C483        C484   1.408       .  A
C484        C485   1.411       .  A
C484        H488   1.079       .  S
C485        C617   1.493       .  S
C485        C486   1.405       .  A
C486        H489   1.083       .  S
O490       Cr508   2.105       .  S
O490        C498   1.274       .  A
O491       Cr508   1.965       .  S
O491        C492   1.251       .  A
C492        O493   1.268       .  A
O493       Cr509   2.077       .  S
O494       Cr509   1.961       .  S
C495        C528   1.508       .  S
C495        O496   1.269       .  A
O497       Cr510   1.973       .  S
O497        C498   1.261       .  A
O499       Cr508   1.959       .  S
O499        C507   1.258       .  A
O500       Cr508   2.100       .  S
O500        C501   1.296       .  A
C501        O502   1.257       .  A
O502       Cr509   1.954       .  S
O503       Cr509   2.062       .  S
O503        C504   1.290       .  A
C504        O505   1.258       .  A
O505       Cr510   1.974       .  S
O506       Cr510   2.070       .  S
O506        C507   1.294       .  A
C507        C512   1.477       .  S
Cr508       O511   1.774       .  S
Cr509       O511   1.785       .  S
Cr510       O511   1.770       .  S
C512        N513   1.388       .  A
C512        N517   1.325       .  A
N513        C514   1.389       .  A
C514        N515   1.370       .  A
C514        C547   1.520       .  S
N515        C516   1.359       .  A
C516        N517   1.323       .  A
C516        C589   1.457       .  S
C518        N519   1.340       .  A
C518        N523   1.389       .  A
C518        C550   1.490       .  S
N519        C520   1.337       .  A
C520        N521   1.349       .  A
C520        C578   1.465       .  S
N521        C522   1.361       .  A
C522        N523   1.385       .  A
C524        N525   1.341       .  A
C524        N529   1.390       .  A
N525        C526   1.333       .  A
C526        N527   1.347       .  A
C526        C561   1.451       .  S
N527        C528   1.355       .  A
C528        N529   1.385       .  A
C530        C564   1.465       .  S
C530        C531   1.386       .  A
C530        C535   1.399       .  A
C531        C532   1.380       .  A
C531        H536   1.086       .  S
C532        C575   1.460       .  S
C532        C533   1.386       .  A
C533        C534   1.411       .  A
C533        H537   1.078       .  S
C534       C1320   1.505       .  S
C534        C535   1.414       .  A
C535        H538   1.074       .  S
O539      Cr2741   2.097       .  S
O539        C547   1.279       .  A
O540      Cr1285   1.969       .  S
O540       C1269   1.259       .  A
C541       C1103   1.515       .  S
C541       O1268   1.261       .  A
C541        O542   1.274       .  A
O542       Cr558   2.089   1_455  S
O543      Cr2014   1.963       .  S
O543        C544   1.254       .  A
C544        O545   1.276       .  A
O545       Cr559   2.096       .  S
O546      Cr1287   1.970   1_545  S
O546        C547   1.258       .  A
O548       Cr557   1.971       .  S
O548        C556   1.258       .  A
O549       Cr557   2.070       .  S
O549        C550   1.289       .  A
C550        O551   1.258       .  A
O551       Cr558   1.967   1_455  S
O552      Cr2014   2.074       .  S
O552        C553   1.288       .  A
C553        O554   1.253       .  A
O554       Cr559   1.940       .  S
O555       Cr559   2.075       .  S
O555       C2012   1.291       .  A
C556       O2011   1.290   1_455  A
Cr557      O2723   2.099   1_455  S
Cr557      O1268   1.971       .  S
Cr557       O560   1.783   1_455  S
Cr558      O1999   1.965       .  S
Cr558      O2008   2.074       .  S
Cr558       O560   1.790       .  S
Cr559      O1274   1.963       .  S
Cr559      O2016   1.787       .  S
O560      Cr2015   1.788       .  S
C561        C562   1.411       .  A
C562        C563   1.402   1_556  A
C562        C567   1.452       .  S
C563        C570   1.450       .  S
C564        C565   1.411       .  A
C565        C566   1.392       .  A
C565        C568   1.445       .  S
C566        C569   1.443       .  S
C567        N574   1.158       .  T
C568        N573   1.154       .  T
C569        N571   1.153       .  T
C570        N572   1.157       .  T
C575        C576   1.415       .  A
C575        C580   1.401       .  A
C576        C577   1.407       .  A
C576        C581   1.451       .  S
C577        C578   1.406       .  A
C577        C584   1.450       .  S
C578        C579   1.421       .  A
C579        C580   1.389       .  A
C579        C582   1.450       .  S
C580        C583   1.456       .  S
C581        N588   1.157       .  T
C582        N587   1.155       .  T
C583        N585   1.156       .  T
C584        N586   1.157       .  T
C589        C590   1.420       .  A
C589        C594   1.423       .  A
C590        C591   1.406       .  A
C590        C595   1.453       .  S
C591        C592   1.407       .  A
C591       C1326   1.446       .  S
C592       C1262   1.498       .  S
C592        C593   1.401       .  A
C593        C594   1.406       .  A
C593        C596   1.447       .  S
C594        C597   1.448       .  S
C595        N602   1.158       .  T
C596        N601   1.157       .  T
C597        N599   1.156       .  T
C598       C1319   1.449       .  S
C598        N600   1.158       .  T
C603        C604   1.418   1_565  A
C603       C1336   1.411       .  A
C604        C605   1.394       .  A
C604        C609   1.449       .  S
C605       C1334   1.404   1_545  A
C605        C612   1.456       .  S
C606       C1333   1.411       .  A
C606        C607   1.417       .  A
C607        C608   1.407       .  A
C607        C610   1.452       .  S
C608       C1331   1.403       .  A
C608        C611   1.448       .  S
C609        N616   1.156       .  T
C610        N615   1.158       .  T
C611        N613   1.157       .  T
C612        N614   1.157       .  T
C617        C618   1.417       .  A
C617        C622   1.419       .  A
C618        C619   1.398       .  A
C618        C623   1.453       .  S
C619        C620   1.407       .  A
C619        C626   1.453       .  S
C620        C621   1.404       .  A
C621        C622   1.406       .  A
C621        C624   1.447       .  S
C622        C625   1.450       .  S
C623        N630   1.157       .  T
C624        N629   1.156       .  T
C625        N627   1.158       .  T
C626        N628   1.157       .  T
C631        C632   1.406       .  A
C631        C636   1.411       .  A
C632        C633   1.400       .  A
C632        C637   1.443       .  S
C633        C634   1.414       .  A
C633        C640   1.449       .  S
C634        C635   1.394       .  A
C635        C636   1.377       .  A
C635        C638   1.445       .  S
C636       C2095   1.447       .  S
C637        N644   1.154       .  T
C638       N2099   1.157       .  T
C639       C2092   1.447   1_455  S
C639        N641   1.156       .  T
C640        N642   1.157       .  T
N643       C2094   1.157       .  T
C645        C646   1.401       .  A
C645        C650   1.426       .  A
C646        C647   1.406       .  A
C646        C651   1.450       .  S
C647        C648   1.428       .  A
C647        C654   1.449       .  S
C648        C649   1.409       .  A
C649        C650   1.408       .  A
C649        C652   1.451       .  S
C650        C653   1.454       .  S
C651        N658   1.156       .  T
C652        N657   1.157       .  T
C653        N655   1.158       .  T
C654        N656   1.156       .  T
C659        C660   1.433       .  A
C659        C664   1.420       .  A
C660        C661   1.399       .  A
C660        C665   1.450       .  S
C661        C662   1.398       .  A
C661        C668   1.450       .  S
C662        C663   1.409       .  A
C663        C664   1.406       .  A
C663        C666   1.446       .  S
C664        C667   1.451   1_556  S
C665        N672   1.157       .  T
C666        N671   1.154   1_556  T
C667        N669   1.157       .  T
C668        N670   1.156       .  T
C673        C674   1.408       .  A
C673        C678   1.425   1_455  A
C674        C679   1.445       .  S
C675        C676   1.423   1_556  A
C675        C682   1.452       .  S
C677        C678   1.410       .  A
C677       C2136   1.449       .  S
C678        C681   1.453       .  S
C680       C2133   1.450       .  S
C680        N685   1.157       .  T
C681       N2139   1.158       .  T
C682        N684   1.156       .  T
N683       C2137   1.158       .  T
C687        C688   1.393       .  A
C687        C692   1.404       .  A
C688        C689   1.399       .  A
C688       C2149   1.450   1_455  S
C689        C690   1.429       .  A
C689        C696   1.452       .  S
C690        C691   1.413       .  A
C691        C692   1.389       .  A
C691        C694   1.452       .  S
C692        C695   1.453       .  S
C693       C2144   1.450       .  S
C693        N700   1.157       .  T
C694        N699   1.156       .  T
C695        N697   1.156       .  T
C696        N698   1.157       .  T
C701        C702   1.436       .  A
C701        C706   1.421       .  A
C702        C703   1.413       .  A
C702        C707   1.449       .  S
C703        C704   1.400       .  A
C703        C710   1.452       .  S
C704        C705   1.397       .  A
C705        C706   1.395       .  A
C705        C708   1.452       .  S
C706        C709   1.449       .  S
C707        N714   1.158       .  T
C708        N713   1.157       .  T
C709        N711   1.155       .  T
C710        N712   1.157       .  T
C715        C716   1.411       .  A
C715        C720   1.421       .  A
C716        C717   1.402       .  A
C716        C721   1.452       .  S
C717        C718   1.414       .  A
C717        C724   1.452       .  S
C718        C719   1.397       .  A
C719        C720   1.398       .  A
C719        C722   1.445       .  S
C720        C723   1.451       .  S
C721        N728   1.157       .  T
C722        N727   1.155       .  T
C723        N725   1.156       .  T
C724        N726   1.157       .  T
C729        N730   1.332       .  A
C729        N734   1.387       .  A
C729        C868   1.486       .  S
N730        C731   1.332       .  A
C731        N732   1.354       .  A
C731       C1082   1.477       .  S
N732        C733   1.364       .  A
C733        N734   1.389       .  A
C733       C1174   1.510   1_554  S
C735        N736   1.338       .  A
C735        N740   1.391       .  A
C735        C822   1.497       .  S
N736        C737   1.338       .  A
C737        N738   1.351       .  A
C737       C1068   1.456       .  S
N738        C739   1.363       .  A
C739        N740   1.392       .  A
C741        N742   1.386       .  A
C741       N2202   1.339       .  A
C741        C917   1.480       .  S
N742        C743   1.380       .  A
C743        N744   1.353       .  A
C743        C856   1.491       .  S
N744       C2201   1.341       .  A
C745       N2200   1.341       .  A
C745        N746   1.341       .  A
C745       C1051   1.443   1_655  S
N746       C2197   1.338       .  A
C747       C1079   1.466       .  S
C747        C748   1.399       .  A
C747        C752   1.379       .  A
C748        C749   1.410       .  A
C748        H753   1.070       .  S
C749       C1065   1.514       .  S
C749        C750   1.415       .  A
C750        C751   1.387       .  A
C750        H754   1.076       .  S
C751       C1054   1.475       .  S
C751        C752   1.381       .  A
C752        H755   1.086       .  S
O756       Cr774   2.117       .  S
O756        C764   1.281       .  A
O757       Cr774   1.967       .  S
O757        C758   1.254       .  A
C758        C886   1.509       .  S
C758        O759   1.272       .  A
O759       Cr775   2.091       .  S
O760       Cr775   1.970       .  S
O760        C761   1.260       .  A
C761        C788   1.514       .  S
C761        O762   1.272       .  A
O762       Cr776   2.088       .  S
O763       Cr776   1.966       .  S
O763        C764   1.257       .  A
C764        C835   1.526       .  S
O765       Cr774   1.957       .  S
O765        C773   1.253       .  A
O766       Cr774   2.101       .  S
O766        C767   1.294       .  A
C767        C839   1.486       .  S
C767        O768   1.255       .  A
O768       Cr775   1.943       .  S
O769       Cr775   2.070       .  S
O769        C770   1.288       .  A
C770        C888   1.472       .  S
C770        O771   1.257       .  A
O771       Cr776   1.953       .  S
O772       Cr776   2.067       .  S
O772        C773   1.290       .  A
C773        C790   1.479       .  S
Cr774       O777   1.784       .  S
Cr775       O777   1.782       .  S
Cr776       O777   1.779       .  S
C778        N779   1.338       .  A
C778        C920   1.497       .  S
N779        C780   1.337       .  A
C780        N781   1.353       .  A
C780       C1037   1.487       .  S
C782        N783   1.389       .  A
C782        C807   1.522       .  S
C784        N785   1.341       .  A
C784        N789   1.389       .  A
C784        C819   1.487       .  S
N785        C786   1.340       .  A
C786        N787   1.353       .  A
C786       C1026   1.476       .  S
N787        C788   1.360       .  A
C788        N789   1.386       .  A
C790        N791   1.331       .  A
C790        N795   1.385       .  A
N791        C792   1.333       .  A
C792        N793   1.359       .  A
C792       C1009   1.488       .  S
N793        C794   1.369       .  A
C794        N795   1.385       .  A
C794        C908   1.515       .  S
C796       C1040   1.480   1_655  S
C796        C797   1.394   1_655  A
C796       C2257   1.396       .  A
C797        C798   1.406       .  A
C797        H802   1.080       .  S
C798       C1023   1.500       .  S
C798       C2255   1.398   1_455  A
C799       C2254   1.398       .  A
C799        C800   1.402       .  A
C799        H803   1.081       .  S
C800       C1012   1.486       .  S
C800        C801   1.397       .  A
C801       C2252   1.396       .  A
C801        H804   1.083       .  S
O805        C813   1.284       .  A
O806       Cr823   1.968       .  S
O806       C1171   1.256       .  A
C807       O1170   1.254       .  A
C807        O808   1.274       .  A
O808      Cr1188   2.107   1_554  S
O809       Cr824   1.979       .  S
O809        C810   1.262       .  A
C810       C1097   1.516       .  S
C810        O811   1.272       .  A
O811       Cr825   2.084       .  S
O812       Cr825   1.962       .  S
C813        C841   1.526       .  S
O814       Cr823   1.972       .  S
O814        C822   1.259       .  A
O815       Cr823   2.097       .  S
O815        C816   1.297       .  A
C816        C827   1.493       .  S
C816        O817   1.255       .  A
O817       Cr824   1.953       .  S
O818       Cr824   2.069       .  S
O818        C819   1.290       .  A
C819        O820   1.261       .  A
O820       Cr825   1.970       .  S
O821       Cr825   2.075       .  S
O821        C822   1.288       .  A
Cr823       O826   1.786       .  S
Cr824      O1172   2.104       .  S
Cr824       O826   1.791       .  S
Cr825       O826   1.786       .  S
C827       N1192   1.394       .  A
C827        N832   1.331       .  A
N828       C1191   1.396   1_554  A
N828       C2649   1.395   1_554  A
C829       N2648   1.391       .  A
C829        N830   1.357       .  A
C829       C1226   1.512       .  S
N830        C831   1.343       .  A
C831       N2288   1.336       .  A
C831        C995   1.460       .  S
N832       C2287   1.337   1_455  A
C833        N834   1.393       .  A
C833        N838   1.334       .  A
C833        C865   1.491       .  S
N834        C835   1.391       .  A
C835        N836   1.366       .  A
N836        C837   1.354       .  A
C837        N838   1.337       .  A
C837        C984   1.470       .  S
C839        N840   1.396       .  A
C839        N844   1.345       .  A
N840        C841   1.388       .  A
C841        N842   1.358       .  A
N842        C843   1.349       .  A
C843        N844   1.341       .  A
C843        C970   1.471       .  S
C845        C998   1.446       .  S
C845        C846   1.374       .  A
C845        C850   1.378       .  A
C846        C847   1.384       .  A
C846        H851   1.087       .  S
C847        C967   1.467       .  S
C847        C848   1.408       .  A
C848        C849   1.413       .  A
C848        H852   1.078       .  S
C849        C981   1.495       .  S
C849        C850   1.406       .  A
C850        H853   1.083       .  S
O854       Cr872   2.106       .  S
O854        C862   1.275       .  A
O855       Cr872   1.966       .  S
O855        C856   1.252       .  A
C856        O857   1.268       .  A
O857       Cr873   2.076       .  S
O858       Cr873   1.961       .  S
O858       C1223   1.253   1_554  A
C859        C892   1.507       .  S
C859       O1222   1.250       .  A
C859        O860   1.270       .  A
O860      Cr1238   2.102       .  S
O861       Cr874   1.966       .  S
O861        C862   1.258       .  A
C862       C1193   1.523   1_554  S
O863       Cr872   1.945       .  S
O863        C871   1.254       .  A
O864       Cr872   2.101       .  S
O864        C865   1.296       .  A
C865        O866   1.258       .  A
O866       Cr873   1.957       .  S
O867       Cr873   2.061       .  S
O867        C868   1.290       .  A
C868        O869   1.259       .  A
O869       Cr874   1.975       .  S
O870       Cr874   2.065       .  S
O870        C871   1.291       .  A
C871        C876   1.461       .  S
Cr872       O875   1.774       .  S
Cr873       O875   1.780       .  S
Cr874      O1224   2.102   1_554  S
Cr874       O875   1.774       .  S
C876        N877   1.384       .  A
C876        N881   1.321       .  A
N877        C878   1.386       .  A
C878        N879   1.374       .  A
C878        C911   1.515       .  S
N879        C880   1.359       .  A
C880        N881   1.319       .  A
C880        C953   1.455       .  S
C882        N883   1.336       .  A
C882        N887   1.389       .  A
C882        C914   1.487       .  S
N883        C884   1.334       .  A
C884        N885   1.349       .  A
C884        C942   1.458       .  S
N885        C886   1.360       .  A
C886        N887   1.386       .  A
C888        N889   1.342       .  A
C888        N893   1.389       .  A
N889        C890   1.335       .  A
C890        N891   1.346       .  A
C890        C925   1.452       .  S
N891        C892   1.355       .  A
C892        N893   1.383       .  A
C894        C928   1.470       .  S
C894        C895   1.384       .  A
C894        C899   1.401       .  A
C895        C896   1.379       .  A
C895        H900   1.086       .  S
C896        C939   1.458       .  S
C896        C897   1.385   1_565  A
C897        C898   1.412       .  A
C897        H901   1.075       .  S
C898        C899   1.417   1_545  A
C899        H902   1.074   1_554  S
O903      Cr1649   2.098       .  S
O903        C911   1.279       .  A
C905        O906   1.274   1_545  A
O906       Cr922   2.096   1_455  S
O907      Cr2378   1.965       .  S
O907        C908   1.255       .  A
C908        O909   1.277       .  A
O909       Cr923   2.098       .  S
O910        C911   1.254       .  A
O912       Cr921   1.973       .  S
O912        C920   1.258       .  A
O913       Cr921   2.073       .  S
O913        C914   1.291       .  A
C914        O915   1.257       .  A
O915       Cr922   1.961   1_455  S
O916      Cr2378   2.077       .  S
O916        C917   1.289       .  A
C917        O918   1.255       .  A
O918       Cr923   1.948       .  S
O919       Cr923   2.075       .  S
O919       C2376   1.291       .  A
C920       O2375   1.292   1_455  A
Cr921      O1631   2.102   1_465  S
Cr921       O924   1.782   1_455  S
Cr922      O2363   1.965       .  S
Cr922      O2372   2.080       .  S
Cr922       O924   1.789       .  S
Cr923      O2380   1.785       .  S
O924      Cr2379   1.784       .  S
C925        C926   1.410       .  A
C925       C1294   1.404       .  A
C926        C927   1.402       .  A
C926        C931   1.452       .  S
C927       C1292   1.411       .  A
C927        C934   1.451       .  S
C928       C1291   1.412   1_554  A
C928        C929   1.413       .  A
C929        C930   1.395   1_554  A
C929        C932   1.447       .  S
C930       C1289   1.403       .  A
C930        C933   1.447       .  S
C931        N938   1.157       .  T
C932        N937   1.155       .  T
C933        N935   1.154       .  T
C934        N936   1.157       .  T
C939        C940   1.415       .  A
C939        C944   1.401       .  A
C940        C941   1.406       .  A
C940        C945   1.451       .  S
C941        C942   1.404       .  A
C941        C948   1.450       .  S
C942        C943   1.420       .  A
C943        C944   1.388       .  A
C943        C946   1.453       .  S
C944        C947   1.453       .  S
C945        N952   1.157       .  T
C946        N951   1.156       .  T
C947        N949   1.156       .  T
C948        N950   1.157       .  T
C953        C954   1.420       .  A
C953        C958   1.421       .  A
C954        C955   1.404       .  A
C954        C959   1.454       .  S
C955        C956   1.405       .  A
C956        C957   1.402       .  A
C957        C958   1.407       .  A
C957        C960   1.447       .  S
C958        C961   1.447       .  S
C959        N966   1.157       .  T
C960        N965   1.156       .  T
C961        N963   1.156       .  T
C962        N964   1.158       .  T
C967        C968   1.419       .  A
C968        C969   1.395       .  A
C968        C973   1.449       .  S
C969        C976   1.457       .  S
C970        C971   1.418       .  A
C971        C972   1.408       .  A
C971        C974   1.452       .  S
C972        C975   1.449       .  S
C973        N980   1.156       .  T
C974        N979   1.158       .  T
C975        N977   1.157       .  T
C976        N978   1.157       .  T
C981        C982   1.417       .  A
C981        C986   1.417       .  A
C982        C983   1.401       .  A
C982        C987   1.453       .  S
C983        C984   1.409       .  A
C983        C990   1.452       .  S
C984        C985   1.403       .  A
C985        C986   1.406       .  A
C985        C988   1.446       .  S
C986        C989   1.450       .  S
C987        N994   1.157       .  T
C988        N993   1.155       .  T
C989        N991   1.158       .  T
C990        N992   1.157       .  T
C995        C996   1.406       .  A
C995       C1000   1.411       .  A
C996        C997   1.401       .  A
C996       C1001   1.442       .  S
C997        C998   1.412       .  A
C997       C1004   1.448       .  S
C998        C999   1.392       .  A
C999       C1000   1.376       .  A
C999       C1002   1.444       .  S
C1000      C2459   1.447       .  S
C1001      N1008   1.154       .  T
C1002      N2463   1.157       .  T
C1003      C2456   1.447   1_455  S
C1003      N1005   1.156       .  T
C1004      N1006   1.156       .  T
N1007      C2458   1.157       .  T
C1009      C1010   1.403       .  A
C1009      C1014   1.424       .  A
C1010      C1011   1.404       .  A
C1010      C1015   1.447       .  S
C1011      C1012   1.425       .  A
C1011      C1018   1.450       .  S
C1012      C1013   1.406       .  A
C1013      C1014   1.405       .  A
C1013      C1016   1.451       .  S
C1014      C1017   1.453       .  S
C1015      N1022   1.156       .  T
C1016      N1021   1.157       .  T
C1017      N1019   1.157       .  T
C1018      N1020   1.156       .  T
C1023      C1024   1.430       .  A
C1023      C1028   1.418       .  A
C1024      C1025   1.397       .  A
C1024      C1029   1.451       .  S
C1025      C1026   1.399       .  A
C1025      C1032   1.450       .  S
C1026      C1027   1.410       .  A
C1027      C1028   1.408       .  A
C1027      C1030   1.445       .  S
C1028      C1031   1.452       .  S
C1029      N1036   1.158       .  T
C1030      N1035   1.155       .  T
C1031      N1033   1.157       .  T
C1032      N1034   1.156       .  T
C1037      C1038   1.407   1_554  A
C1037      C1042   1.423   1_455  A
C1038      C1403   1.398       .  A
C1038      C1043   1.443       .  S
C1039      C1402   1.401       .  A
C1039      C1040   1.420       .  A
C1039      C1046   1.452       .  S
C1040      C1405   1.406   1_455  A
C1041      C1404   1.405   1_554  A
C1041      C1042   1.405       .  A
C1041      C2500   1.449       .  S
C1042      C1045   1.454       .  S
C1043      N1414   1.154       .  T
C1044      C2497   1.449       .  S
C1044      N1049   1.157       .  T
C1045      N2503   1.158       .  T
C1046      N1048   1.156       .  T
N1047      C2501   1.158       .  T
N1050      C1407   1.158       .  T
C1051      C1052   1.391       .  A
C1051      C1056   1.404       .  A
C1052      C1053   1.400       .  A
C1052      C2513   1.449   1_455  S
C1053      C1054   1.431       .  A
C1053      C1060   1.452       .  S
C1054      C1055   1.415       .  A
C1055      C1056   1.389       .  A
C1055      C1058   1.451       .  S
C1056      C1059   1.455       .  S
C1057      C2508   1.449       .  S
C1057      N1064   1.157       .  T
C1058      N1063   1.156       .  T
C1059      N1061   1.157       .  T
C1060      N1062   1.157       .  T
C1065      C1066   1.437       .  A
C1065      C1070   1.420       .  A
C1066      C1067   1.412       .  A
C1066      C1071   1.449       .  S
C1067      C1068   1.400       .  A
C1067      C1074   1.453       .  S
C1068      C1069   1.398       .  A
C1069      C1070   1.395       .  A
C1069      C1072   1.452       .  S
C1070      C1073   1.447       .  S
C1071      N1078   1.158       .  T
C1072      N1077   1.156       .  T
C1073      N1075   1.154       .  T
C1074      N1076   1.157       .  T
C1079      C1080   1.407       .  A
C1079      C1084   1.420       .  A
C1080      C1081   1.401       .  A
C1080      C1085   1.452       .  S
C1081      C1082   1.418       .  A
C1081      C1088   1.452       .  S
C1082      C1083   1.400       .  A
C1083      C1084   1.399       .  A
C1083      C1086   1.445       .  S
C1084      C1087   1.451       .  S
C1085      N1092   1.157       .  T
C1086      N1091   1.155       .  T
C1087      N1089   1.156       .  T
C1088      N1090   1.157       .  T
C1093      N1094   1.326       .  A
C1093      N1098   1.391       .  A
C1093      C1232   1.492       .  S
N1094      C1095   1.328       .  A
C1095      N1096   1.354       .  A
C1095      C1446   1.475       .  S
N1096      C1097   1.362       .  A
C1097      N1098   1.394       .  A
C1099      N1100   1.342       .  A
C1099      N1104   1.386       .  A
C1099      C1186   1.494       .  S
N1100      C1101   1.342       .  A
C1101      N1102   1.352       .  A
C1101      C1432   1.457       .  S
N1102      C1103   1.360       .  A
C1103      N1104   1.386       .  A
C1105      N1106   1.386       .  A
C1105      N2566   1.338       .  A
C1105      C1281   1.477       .  S
N1106      C1107   1.383       .  A
C1107      N1108   1.359       .  A
C1107      C1220   1.500       .  S
N1108      C2565   1.346       .  A
C1109      N2564   1.345   1_455  A
C1109      N1110   1.336   1_455  A
C1109      C1415   1.463       .  S
N1110      C2561   1.338       .  A
C1111      C1443   1.466       .  S
C1111      C1112   1.399       .  A
C1111      C1116   1.379       .  A
C1112      C1113   1.412       .  A
C1112      H1117   1.070       .  S
C1113      C1429   1.527       .  S
C1113      C1114   1.423       .  A
C1114      C1115   1.395       .  A
C1114      H1118   1.073       .  S
C1115      C1418   1.480       .  S
C1115      C1116   1.377       .  A
C1116      H1119   1.086       .  S
O1120     Cr1138   2.126       .  S
O1120      C1128   1.284       .  A
O1121     Cr1138   1.970       .  S
O1121      C1122   1.256       .  A
C1122      C1250   1.517       .  S
C1122      O1123   1.270       .  A
O1123     Cr1139   2.089       .  S
O1124     Cr1139   1.971       .  S
O1124      C1125   1.260       .  A
C1125      C1152   1.520       .  S
C1125      O1126   1.275       .  A
O1126     Cr1140   2.100       .  S
O1127     Cr1140   1.958       .  S
O1127      C1128   1.255       .  A
C1128      C1199   1.527       .  S
O1129     Cr1138   1.968       .  S
O1129      C1137   1.254       .  A
O1130     Cr1138   2.095       .  S
O1130      C1131   1.295       .  A
C1131      C1203   1.475       .  S
C1131      O1132   1.253       .  A
O1132     Cr1139   1.936       .  S
O1133     Cr1139   2.063       .  S
O1133      C1134   1.286       .  A
C1134      C1252   1.466       .  S
C1134      O1135   1.260       .  A
O1135     Cr1140   1.956       .  S
O1136     Cr1140   2.086       .  S
O1136      C1137   1.294       .  A
C1137      C1154   1.500       .  S
Cr1138     O1141   1.783       .  S
Cr1139     O1141   1.784       .  S
Cr1140     O1141   1.778       .  S
C1142      N1143   1.337       .  A
C1142      C1284   1.485       .  S
N1143      C1144   1.335       .  A
C1144      N1145   1.349       .  A
C1144      C1401   1.476       .  S
C1146      N1147   1.388       .  A
C1146      C1171   1.525       .  S
C1148      N1149   1.344       .  A
C1148      N1153   1.391       .  A
C1148      C1183   1.489       .  S
N1149      C1150   1.341       .  A
C1150      N1151   1.353       .  A
C1150      C1390   1.486       .  S
N1151      C1152   1.359       .  A
C1152      N1153   1.386       .  A
C1154      N1155   1.336       .  A
C1154      N1159   1.394       .  A
N1155      C1156   1.340       .  A
C1156      N1157   1.351       .  A
C1156      C1373   1.477       .  S
N1157      C1158   1.358       .  A
C1158      N1159   1.392       .  A
C1158      C1272   1.519       .  S
C1160      C1404   1.474       .  S
C1160      C1161   1.397   1_655  A
C1160      C2621   1.399       .  A
C1161      C1162   1.400       .  A
C1161      H1166   1.083       .  S
C1162      C1387   1.499       .  S
C1162      C2619   1.401   1_455  A
C1163      C2618   1.402       .  A
C1163      C1164   1.404       .  A
C1163      H1167   1.081       .  S
C1164      C1376   1.493       .  S
C1164      C1165   1.398       .  A
C1165      C2616   1.398       .  A
C1165      H1168   1.082       .  S
O1169      C1177   1.276       .  A
O1170     Cr1187   1.962   1_554  S
C1171      O1172   1.275       .  A
O1173     Cr1188   1.972   1_554  S
O1173      C1174   1.257   1_554  A
C1174      O1175   1.268       .  A
O1175     Cr1189   2.081       .  S
O1176     Cr1189   1.963       .  S
C1177      C1205   1.517       .  S
O1178     Cr1187   1.978       .  S
O1178      C1186   1.263       .  A
O1179     Cr1187   2.119       .  S
O1179      C1180   1.299       .  A
C1180      C1191   1.487       .  S
C1180      O1181   1.250       .  A
O1181     Cr1188   1.923       .  S
O1182     Cr1188   2.088       .  S
O1182      C1183   1.295       .  A
C1183      O1184   1.260       .  A
O1184     Cr1189   1.962       .  S
O1185     Cr1189   2.069       .  S
O1185      C1186   1.285       .  A
Cr1187     O1190   1.781       .  S
Cr1188     O1190   1.783       .  S
Cr1189     O1190   1.780       .  S
C1191      N1196   1.327       .  A
N1192      C2285   1.391   1_455  A
C1193      N2284   1.395   1_556  A
C1193      N1194   1.358       .  A
N1194      C1195   1.349       .  A
C1195      N2652   1.336       .  A
C1195      C1359   1.474       .  S
N1196      C2651   1.337       .  A
C1197      N1198   1.393       .  A
C1197      N1202   1.332       .  A
C1197      C1229   1.490       .  S
N1198      C1199   1.393       .  A
C1199      N1200   1.366       .  A
N1200      C1201   1.352       .  A
C1201      N1202   1.336       .  A
C1201      C1348   1.482       .  S
C1203      N1204   1.393       .  A
C1203      N1208   1.333       .  A
N1204      C1205   1.389       .  A
C1205      N1206   1.358       .  A
N1206      C1207   1.348       .  A
C1207      N1208   1.331       .  A
C1207      C1334   1.449       .  S
C1209      C1362   1.456       .  S
C1209      C1210   1.391       .  A
C1209      C1214   1.374       .  A
C1210      C1211   1.394       .  A
C1210      H1215   1.084       .  S
C1211      C1331   1.463       .  S
C1211      C1212   1.408       .  A
C1212      C1213   1.402       .  A
C1212      H1216   1.083       .  S
C1213      C1345   1.486       .  S
C1213      C1214   1.395       .  A
C1214      H1217   1.084       .  S
O1218     Cr1236   2.104       .  S
O1218      C1226   1.273       .  A
O1219     Cr1236   1.960       .  S
O1219      C1220   1.249       .  A
C1220      O1221   1.272       .  A
O1221     Cr1237   2.093       .  S
O1222     Cr1237   1.962       .  S
C1223      C1256   1.510       .  S
C1223      O1224   1.276       .  A
O1225     Cr1238   1.966       .  S
O1225      C1226   1.253       .  A
O1227     Cr1236   1.953       .  S
O1227      C1235   1.259       .  A
O1228     Cr1236   2.107       .  S
O1228      C1229   1.299       .  A
C1229      O1230   1.258       .  A
O1230     Cr1237   1.952       .  S
O1231     Cr1237   2.085       .  S
O1231      C1232   1.297       .  A
C1232      O1233   1.257       .  A
O1233     Cr1238   1.971       .  S
O1234     Cr1238   2.079       .  S
O1234      C1235   1.293       .  A
C1235      C1240   1.472       .  S
Cr1236     O1239   1.772       .  S
Cr1237     O1239   1.770       .  S
Cr1238     O1239   1.771       .  S
C1240      N1241   1.386       .  A
C1240      N1245   1.324       .  A
N1241      C1242   1.389       .  A
C1242      N1243   1.372       .  A
C1242      C1275   1.520       .  S
N1243      C1244   1.359       .  A
C1244      N1245   1.325       .  A
C1244      C1317   1.459       .  S
C1246      N1247   1.339       .  A
C1246      N1251   1.392       .  A
C1246      C1278   1.497       .  S
N1247      C1248   1.337       .  A
C1248      N1249   1.350       .  A
C1248      C1306   1.466       .  S
N1249      C1250   1.360       .  A
C1250      N1251   1.390       .  A
C1252      N1253   1.335       .  A
C1252      N1257   1.385       .  A
N1253      C1254   1.330       .  A
C1254      N1255   1.354       .  A
C1254      C1289   1.462       .  S
N1255      C1256   1.363       .  A
C1256      N1257   1.382       .  A
C1258      C1292   1.462       .  S
C1258      C1259   1.388       .  A
C1258      C1263   1.397       .  A
C1259      C1260   1.386       .  A
C1259      H1264   1.085       .  S
C1260      C1303   1.454       .  S
C1260      C1261   1.388   1_565  A
C1261      C1262   1.413       .  A
C1261      H1265   1.080       .  S
C1262      C1263   1.406   1_545  A
C1263      H1266   1.080       .  S
O1267     Cr2013   2.099       .  S
O1267      C1275   1.279       .  A
C1269      O1270   1.276   1_545  A
O1270     Cr1286   2.105   1_455  S
O1271     Cr2742   1.982       .  S
O1271      C1272   1.263       .  A
C1272      O1273   1.275       .  A
O1273     Cr1287   2.091       .  S
O1274      C1275   1.257       .  A
O1276     Cr1285   1.962   1_565  S
O1276      C1284   1.256       .  A
O1277     Cr1285   2.076   1_565  S
O1277      C1278   1.291       .  A
C1278      O1279   1.256       .  A
O1279     Cr1286   1.976   1_455  S
O1280     Cr2742   2.062       .  S
O1280      C1281   1.284       .  A
C1281      O1282   1.257       .  A
O1282     Cr1287   1.961       .  S
O1283     Cr1287   2.070       .  S
O1283      C2740   1.289       .  A
C1284      O2739   1.289   1_455  A
Cr1285     O1995   2.095   1_455  S
Cr1285     O1288   1.787   1_445  S
Cr1286     O2727   1.983       .  S
Cr1286     O2736   2.062       .  S
Cr1286     O1288   1.787       .  S
Cr1287     O2744   1.791       .  S
O1288     Cr2743   1.790       .  S
C1289      C1290   1.413       .  A
C1290      C1291   1.403       .  A
C1290      C1295   1.453       .  S
C1291      C1298   1.452       .  S
C1292      C1293   1.409       .  A
C1293      C1294   1.393       .  A
C1293      C1296   1.446       .  S
C1294      C1297   1.453       .  S
C1295      N1302   1.158       .  T
C1296      N1301   1.154       .  T
C1297      N1299   1.157       .  T
C1298      N1300   1.157       .  T
C1303      C1304   1.407       .  A
C1303      C1308   1.401       .  A
C1304      C1305   1.407       .  A
C1304      C1309   1.449       .  S
C1305      C1306   1.410       .  A
C1305      C1312   1.449       .  S
C1306      C1307   1.420       .  A
C1307      C1308   1.388       .  A
C1307      C1310   1.450       .  S
C1308      C1311   1.457       .  S
C1309      N1316   1.157       .  T
C1310      N1315   1.155       .  T
C1311      N1313   1.156       .  T
C1312      N1314   1.157       .  T
C1317      C1318   1.417       .  A
C1317      C1322   1.414       .  A
C1318      C1319   1.406       .  A
C1318      C1323   1.456       .  S
C1319      C1320   1.411       .  A
C1320      C1321   1.410       .  A
C1321      C1322   1.406       .  A
C1321      C1324   1.449       .  S
C1322      C1325   1.450       .  S
C1323      N1330   1.157       .  T
C1324      N1329   1.156       .  T
C1325      N1327   1.156       .  T
C1326      N1328   1.157       .  T
C1331      C1332   1.409       .  A
C1332      C1333   1.393       .  A
C1332      C1337   1.452       .  S
C1333      C1340   1.453       .  S
C1334      C1335   1.411       .  A
C1335      C1336   1.402       .  A
C1335      C1338   1.453       .  S
C1336      C1339   1.449       .  S
C1337      N1344   1.156       .  T
C1338      N1343   1.157       .  T
C1339      N1341   1.156       .  T
C1340      N1342   1.156       .  T
C1345      C1346   1.415       .  A
C1345      C1350   1.420       .  A
C1346      C1347   1.397       .  A
C1346      C1351   1.456       .  S
C1347      C1348   1.418       .  A
C1347      C1354   1.454       .  S
C1348      C1349   1.408       .  A
C1349      C1350   1.409       .  A
C1349      C1352   1.449       .  S
C1350      C1353   1.450       .  S
C1351      N1358   1.157       .  T
C1352      N1357   1.157       .  T
C1353      N1355   1.158       .  T
C1354      N1356   1.156       .  T
C1359      C1360   1.412       .  A
C1359      C1364   1.414       .  A
C1360      C1361   1.399       .  A
C1360      C1365   1.441       .  S
C1361      C1362   1.413       .  A
C1361      C1368   1.451       .  S
C1362      C1363   1.397       .  A
C1363      C1364   1.392       .  A
C1363      C1366   1.444       .  S
C1364      C2823   1.453       .  S
C1365      N1372   1.154       .  T
C1366      N2827   1.156       .  T
C1367      C2820   1.453       .  S
C1367      N1369   1.157       .  T
C1368      N1370   1.157       .  T
N1371      C2822   1.156       .  T
C1373      C1374   1.395       .  A
C1373      C1378   1.408       .  A
C1374      C1375   1.399       .  A
C1374      C1379   1.444       .  S
C1375      C1376   1.426       .  A
C1375      C1382   1.448       .  S
C1376      C1377   1.415       .  A
C1377      C1378   1.406       .  A
C1377      C1380   1.442       .  S
C1378      C1381   1.453       .  S
C1379      N1386   1.154       .  T
C1380      N1385   1.155       .  T
C1381      N1383   1.157       .  T
C1382      N1384   1.157       .  T
C1387      C1388   1.425       .  A
C1387      C1392   1.418       .  A
C1388      C1389   1.399       .  A
C1388      C1393   1.449       .  S
C1389      C1390   1.406       .  A
C1389      C1396   1.452       .  S
C1390      C1391   1.417       .  A
C1391      C1392   1.412       .  A
C1391      C1394   1.451       .  S
C1392      C1395   1.452   1_556  S
C1393      N1400   1.156       .  T
C1394      N1399   1.156   1_556  T
C1395      N1397   1.157       .  T
C1396      N1398   1.156       .  T
C1401      C1402   1.411       .  A
C1401      C1406   1.420   1_455  A
C1402      C1407   1.456       .  S
C1403      C1404   1.415   1_455  A
C1403      C1410   1.456       .  S
C1405      C1406   1.403       .  A
C1405      C2864   1.451       .  S
C1406      C1409   1.453       .  S
C1408      C2861   1.451       .  S
C1408      N1413   1.157       .  T
C1409      N2867   1.157       .  T
C1410      N1412   1.157       .  T
N1411      C2865   1.157       .  T
C1415      C1416   1.400       .  A
C1415      C1420   1.411       .  A
C1416      C1417   1.402       .  A
C1416      C2877   1.449       .  S
C1417      C1418   1.424       .  A
C1417      C1424   1.452       .  S
C1418      C1419   1.415       .  A
C1419      C1420   1.396       .  A
C1419      C1422   1.452       .  S
C1420      C1423   1.452       .  S
C1421      C2872   1.449       .  S
C1421      N1428   1.156       .  T
C1422      N1427   1.157       .  T
C1423      N1425   1.156       .  T
C1424      N1426   1.157       .  T
C1429      C1430   1.445       .  A
C1429      C1434   1.419       .  A
C1430      C1431   1.417       .  A
C1430      C1435   1.448       .  S
C1431      C1432   1.402       .  A
C1431      C1438   1.454       .  S
C1432      C1433   1.394       .  A
C1433      C1434   1.391       .  A
C1433      C1436   1.450       .  S
C1434      C1437   1.445       .  S
C1435      N1442   1.158       .  T
C1436      N1441   1.157       .  T
C1437      N1439   1.155       .  T
C1438      N1440   1.157       .  T
C1443      C1444   1.409       .  A
C1443      C1448   1.423       .  A
C1444      C1445   1.398       .  A
C1444      C1449   1.453       .  S
C1445      C1446   1.422       .  A
C1445      C1452   1.455       .  S
C1446      C1447   1.398       .  A
C1447      C1448   1.398       .  A
C1447      C1450   1.450       .  S
C1448      C1451   1.450       .  S
C1449      N1456   1.157       .  T
C1450      N1455   1.156       .  T
C1451      N1453   1.156       .  T
C1452      N1454   1.157       .  T
C1457      N1458   1.330       .  A
C1457      N1462   1.390       .  A
C1457      C1596   1.486       .  S
N1458      C1459   1.330       .  A
C1459      N1460   1.352       .  A
C1459      C1810   1.474       .  S
N1460      C1461   1.361       .  A
C1461      N1462   1.391       .  A
C1461      C1902   1.512   1_554  S
C1463      N1464   1.343       .  A
C1463      N1468   1.387       .  A
C1463      C1550   1.498       .  S
N1464      C1465   1.343       .  A
C1465      N1466   1.352       .  A
C1465      C1796   1.457       .  S
N1466      C1467   1.360       .  A
C1467      N1468   1.387       .  A
C1467      C2361   1.517       .  S
C1469      N1470   1.389       .  A
C1469      C1645   1.475       .  S
N1470      C1471   1.385       .  A
C1471      N1472   1.356       .  A
C1471      C1584   1.501       .  S
C1473      N1474   1.334       .  A
C1473      C1779   1.452       .  S
C1475      C1807   1.464       .  S
C1475      C1476   1.396       .  A
C1475      C1480   1.374       .  A
C1476      C1477   1.411       .  A
C1476      H1481   1.068       .  S
C1477      C1793   1.526       .  S
C1477      C1478   1.424       .  A
C1478      C1479   1.397       .  A
C1478      H1482   1.074       .  S
C1479      C1782   1.476       .  S
C1479      C1480   1.377       .  A
C1480      H1483   1.087       .  S
O1484     Cr1502   2.128       .  S
O1484      C1492   1.284       .  A
O1485     Cr1502   1.975       .  S
O1485      C1486   1.258       .  A
C1486      C1614   1.516       .  S
C1486      O1487   1.268       .  A
O1487     Cr1503   2.086       .  S
O1488     Cr1503   1.968       .  S
O1488      C1489   1.257       .  A
C1489      C1516   1.509       .  S
C1489      O1490   1.271       .  A
O1490     Cr1504   2.089       .  S
O1491     Cr1504   1.957       .  S
O1491      C1492   1.253       .  A
C1492      C1563   1.527       .  S
O1493     Cr1502   1.971       .  S
O1493      C1501   1.255       .  A
O1494     Cr1502   2.094       .  S
O1494      C1495   1.294       .  A
C1495      C1567   1.472       .  S
C1495      O1496   1.253       .  A
O1496     Cr1503   1.936       .  S
O1497     Cr1503   2.064       .  S
O1497      C1498   1.287       .  A
C1498      C1616   1.462       .  S
C1498      O1499   1.259       .  A
O1499     Cr1504   1.954       .  S
O1500     Cr1504   2.076       .  S
O1500      C1501   1.291       .  A
C1501      C1518   1.496       .  S
Cr1502     O1505   1.780       .  S
Cr1503     O1505   1.783       .  S
Cr1504     O1505   1.780       .  S
C1506      N1507   1.338       .  A
C1506      N2239   1.392       .  A
C1506      C1648   1.482       .  S
N1507      C1508   1.334       .  A
C1508      N1509   1.352       .  A
C1508      C1765   1.481       .  S
N1509      C2238   1.361       .  A
C1510      N2237   1.361   1_545  A
C1510      N1511   1.390       .  A
C1510      C1535   1.520       .  S
N1511      C2234   1.392   1_545  A
C1512      N1513   1.344       .  A
C1512      N1517   1.388       .  A
C1512      C1547   1.483       .  S
N1513      C1514   1.342       .  A
C1514      N1515   1.350       .  A
C1514      C1754   1.482       .  S
N1515      C1516   1.357       .  A
C1516      N1517   1.383       .  A
C1518      N1519   1.337       .  A
C1518      N1523   1.392       .  A
N1519      C1520   1.339       .  A
C1520      N1521   1.350       .  A
C1520      C1737   1.475       .  S
N1521      C1522   1.357       .  A
C1522      N1523   1.390       .  A
C1522      C1636   1.512       .  S
C1524      C1768   1.481       .  S
C1524      C1525   1.397       .  A
C1525      C1526   1.401       .  A
C1525      H1530   1.083       .  S
C1526      C1751   1.499       .  S
C1527      C1528   1.403       .  A
C1527      H1531   1.083       .  S
C1528      C1740   1.491       .  S
C1528      C1529   1.400       .  A
C1529      H1532   1.074       .  S
O1533     Cr2279   2.107       .  S
O1533      C1541   1.276       .  A
O1534     Cr1551   1.962       .  S
O1534      C1899   1.253       .  A
C1535      O1898   1.256       .  A
C1535      O1536   1.272       .  A
O1536     Cr1916   2.098   1_554  S
O1537     Cr1552   1.972       .  S
O1537      C1538   1.257       .  A
C1538      C1825   1.507       .  S
C1538      O1539   1.269       .  A
O1539     Cr1553   2.081       .  S
O1540     Cr1553   1.962       .  S
O1540      C2269   1.256   1_545  A
C1541      C1569   1.515       .  S
C1541      O2268   1.256       .  A
O1542     Cr1551   1.980       .  S
O1542      C1550   1.263       .  A
O1543     Cr1551   2.126       .  S
O1543      C1544   1.302       .  A
C1544      C1555   1.492       .  S
C1544      O1545   1.252       .  A
O1545     Cr1552   1.930       .  S
O1546     Cr1552   2.080       .  S
O1546      C1547   1.293       .  A
C1547      O1548   1.260       .  A
O1548     Cr1553   1.958       .  S
O1549     Cr1553   2.073       .  S
O1549      C1550   1.287       .  A
Cr1551     O2261   2.127   1_545  S
Cr1551     O1554   1.779       .  S
Cr1552     O1900   2.099       .  S
Cr1552     O1554   1.786       .  S
Cr1553     O1554   1.780       .  S
C1555      N1920   1.398       .  A
C1555      N1560   1.325       .  A
N1556      C1919   1.395   1_554  A
C1557      N1558   1.357   1_455  A
C1557      C1954   1.524   1_455  S
N1558      C1559   1.348   1_655  A
C1559      C1723   1.473   1_455  S
C1561      N1562   1.394       .  A
C1561      N1566   1.331       .  A
C1561      C1593   1.489       .  S
N1562      C1563   1.393       .  A
C1563      N1564   1.368       .  A
N1564      C1565   1.352       .  A
C1565      N1566   1.335       .  A
C1565      C1712   1.479       .  S
C1567      N1568   1.392       .  A
C1567      N1572   1.332       .  A
N1568      C1569   1.389       .  A
C1569      N1570   1.359       .  A
N1570      C1571   1.347       .  A
C1571      N1572   1.329       .  A
C1571      C1698   1.447       .  S
C1573      C1726   1.458       .  S
C1573      C1574   1.392       .  A
C1573      C1578   1.376       .  A
C1574      C1575   1.396       .  A
C1574      H1579   1.084       .  S
C1575      C1695   1.468       .  S
C1575      C1576   1.408       .  A
C1576      C1577   1.404       .  A
C1576      H1580   1.082       .  S
C1577      C1709   1.491       .  S
C1577      C1578   1.398       .  A
C1578      H1581   1.083       .  S
O1582     Cr1600   2.107       .  S
O1582      C1590   1.274       .  A
O1583     Cr1600   1.961       .  S
O1583      C1584   1.251       .  A
C1584      O1585   1.271       .  A
O1585     Cr1601   2.091       .  S
O1586     Cr1601   1.963       .  S
O1586      C1951   1.251   1_554  A
C1587      C1620   1.514       .  S
C1587      O1950   1.253       .  A
C1587      O1588   1.278       .  A
O1588     Cr1966   2.105       .  S
O1589     Cr1602   1.965       .  S
O1589      C1590   1.253       .  A
C1590      C1921   1.516       .  S
O1591     Cr1600   1.958       .  S
O1591      C1599   1.260       .  A
O1592     Cr1600   2.104       .  S
O1592      C1593   1.298       .  A
C1593      O1594   1.257       .  A
O1594     Cr1601   1.952       .  S
O1595     Cr1601   2.078       .  S
O1595      C1596   1.296       .  A
C1596      O1597   1.257       .  A
O1597     Cr1602   1.967       .  S
O1598     Cr1602   2.080       .  S
O1598      C1599   1.293       .  A
C1599      C1604   1.477       .  S
Cr1600     O1603   1.771       .  S
Cr1601     O1603   1.774       .  S
Cr1602     O1952   2.098   1_554  S
Cr1602     O1603   1.772       .  S
C1604      N1605   1.388       .  A
C1604      N1609   1.327       .  A
N1605      C1606   1.389       .  A
C1606      N1607   1.371       .  A
C1606      C1639   1.523       .  S
N1607      C1608   1.359       .  A
C1608      N1609   1.328       .  A
C1608      C1681   1.460       .  S
C1610      N1611   1.342       .  A
C1610      N1615   1.395       .  A
C1610      C1642   1.506       .  S
N1611      C1612   1.342       .  A
C1612      N1613   1.347       .  A
C1612      C1670   1.465       .  S
N1613      C1614   1.355       .  A
C1614      N1615   1.391       .  A
C1616      N1617   1.332       .  A
C1616      N1621   1.383       .  A
N1617      C1618   1.328       .  A
C1618      N1619   1.358       .  A
C1618      C1653   1.465       .  S
N1619      C1620   1.367       .  A
C1620      N1621   1.382       .  A
C1622      C1656   1.457       .  S
C1622      C1623   1.391       .  A
C1622      C1627   1.394       .  A
C1623      C1624   1.387       .  A
C1623      H1628   1.085       .  S
C1624      C1667   1.452       .  S
C1624      C1625   1.385       .  A
C1625      C1626   1.409       .  A
C1625      H1629   1.082       .  S
C1626      C2412   1.486       .  S
C1626      C1627   1.401       .  A
C1627      H1630   1.081       .  S
O1631      C1639   1.280       .  A
O1632     Cr2377   1.971   1_545  S
O1632      C2361   1.260       .  A
C1633      C2195   1.524       .  S
C1633      O2360   1.257       .  A
C1633      O1634   1.277       .  A
O1634     Cr1650   2.106       .  S
O1635      C1636   1.262       .  A
C1636      O1637   1.272       .  A
O1637     Cr1651   2.081       .  S
O1638     Cr2379   1.966   1_545  S
O1638      C1639   1.257       .  A
O1640     Cr1649   1.959       .  S
O1640      C1648   1.257       .  A
O1641     Cr1649   2.090       .  S
O1641      C1642   1.294       .  A
C1642      O1643   1.257       .  A
O1643     Cr1650   1.976       .  S
O1644      C1645   1.287       .  A
C1645      O1646   1.257       .  A
O1646     Cr1651   1.954       .  S
O1647     Cr1651   2.073       .  S
Cr1649     O2360   1.965       .  S
Cr1649     O1652   1.784       .  S
Cr1650     O1652   1.784       .  S
Cr1651     O2366   1.962       .  S
C1653      C1654   1.418       .  A
C1653      C2022   1.400       .  A
C1654      C1655   1.405       .  A
C1654      C1659   1.453       .  S
C1655      C2020   1.410       .  A
C1655      C1662   1.452       .  S
C1656      C2019   1.408       .  A
C1656      C1657   1.410       .  A
C1657      C1658   1.392   1_554  A
C1657      C1660   1.448       .  S
C1658      C2017   1.403       .  A
C1658      C1661   1.453       .  S
C1659      N1666   1.158       .  T
C1660      N1665   1.155       .  T
C1661      N1663   1.157       .  T
C1662      N1664   1.157       .  T
C1667      C1668   1.406       .  A
C1667      C1672   1.401       .  A
C1668      C1669   1.407       .  A
C1668      C1673   1.450       .  S
C1669      C1670   1.413       .  A
C1669      C1676   1.449       .  S
C1670      C1671   1.420       .  A
C1671      C1672   1.385       .  A
C1671      C1674   1.452       .  S
C1672      C1675   1.456       .  S
C1673      N1680   1.157       .  T
C1674      N1679   1.155       .  T
C1675      N1677   1.156       .  T
C1676      N1678   1.157       .  T
C1681      C1682   1.417       .  A
C1681      C1686   1.414       .  A
C1682      C1683   1.406       .  A
C1682      C1687   1.454       .  S
C1683      C1684   1.411       .  A
C1683      C2418   1.449   1_554  S
C1684      C2354   1.509       .  S
C1684      C1685   1.412       .  A
C1685      C1686   1.405       .  A
C1685      C1688   1.449       .  S
C1686      C1689   1.452       .  S
C1687      N1694   1.157       .  T
C1688      N1693   1.157       .  T
C1689      N1691   1.157       .  T
C1690      C2411   1.447   1_556  S
C1690      N1692   1.157       .  T
C1695      C1696   1.410       .  A
C1695      C2428   1.404   1_545  A
C1696      C1697   1.396       .  A
C1696      C1701   1.452       .  S
C1697      C2426   1.412   1_545  A
C1697      C1704   1.453       .  S
C1698      C2425   1.403       .  A
C1698      C1699   1.410       .  A
C1699      C1700   1.400       .  A
C1699      C1702   1.453       .  S
C1700      C2423   1.412       .  A
C1700      C1703   1.449       .  S
C1701      N1708   1.156       .  T
C1702      N1707   1.157       .  T
C1703      N1705   1.156       .  T
C1704      N1706   1.157       .  T
C1709      C1710   1.415       .  A
C1709      C1714   1.423       .  A
C1710      C1711   1.396       .  A
C1710      C1715   1.455       .  S
C1711      C1712   1.414       .  A
C1711      C1718   1.454       .  S
C1712      C1713   1.406       .  A
C1713      C1714   1.410       .  A
C1713      C1716   1.449       .  S
C1714      C1717   1.450       .  S
C1715      N1722   1.157       .  T
C1716      N1721   1.157       .  T
C1717      N1719   1.158       .  T
C1718      N1720   1.156       .  T
C1723      C1724   1.411       .  A
C1723      C1728   1.412   1_655  A
C1724      C1725   1.402       .  A
C1724      C1729   1.440       .  S
C1725      C1726   1.414       .  A
C1725      C1732   1.450       .  S
C1726      C1727   1.397       .  A
C1727      C1728   1.392   1_655  A
C1727      C1730   1.443   1_655  S
C1729      N1736   1.154       .  T
C1731      N1733   1.157       .  T
C1732      N1734   1.157       .  T
C1737      C1738   1.394       .  A
C1737      C1742   1.409       .  A
C1738      C1739   1.397       .  A
C1738      C1743   1.446       .  S
C1739      C1740   1.424       .  A
C1739      C1746   1.448       .  S
C1740      C1741   1.415       .  A
C1741      C1742   1.406       .  A
C1741      C1744   1.442       .  S
C1742      C1745   1.453       .  S
C1743      N1750   1.155   1_655  T
C1744      N1749   1.156       .  T
C1745      N1747   1.157       .  T
C1746      N1748   1.157       .  T
C1751      C1752   1.426       .  A
C1751      C1756   1.416       .  A
C1752      C1753   1.401       .  A
C1752      C1757   1.448       .  S
C1753      C1754   1.408       .  A
C1753      C1760   1.454       .  S
C1754      C1755   1.414       .  A
C1755      C1756   1.409       .  A
C1755      C1758   1.450       .  S
C1756      C1759   1.451       .  S
C1757      N1764   1.155       .  T
C1758      N1763   1.156       .  T
C1759      N1761   1.157       .  T
C1760      N1762   1.156       .  T
C1765      C1766   1.409       .  A
C1765      C1770   1.422       .  A
C1766      C2131   1.402   1_554  A
C1766      C1771   1.455   1_554  S
C1767      C2130   1.400       .  A
C1767      C1768   1.417       .  A
C1767      C1774   1.455       .  S
C1768      C2133   1.407       .  A
C1769      C2132   1.407       .  A
C1769      C1770   1.405       .  A
C1770      C1773   1.453       .  S
C1771      N2142   1.157       .  T
C1772      N1777   1.157       .  T
C1774      N1776   1.157       .  T
N1778      C2135   1.155       .  T
C1779      C1780   1.399       .  A
C1779      C1784   1.406       .  A
C1780      C1781   1.401       .  A
C1781      C1782   1.424       .  A
C1781      C1788   1.452       .  S
C1782      C1783   1.419       .  A
C1783      C1784   1.395       .  A
C1783      C1786   1.454       .  S
C1784      C1787   1.454       .  S
C1785      N1792   1.157   1_455  T
C1786      N1791   1.157       .  T
C1787      N1789   1.157       .  T
C1788      N1790   1.157       .  T
C1793      C1794   1.444       .  A
C1793      C1798   1.417       .  A
C1794      C1795   1.417       .  A
C1794      C1799   1.448       .  S
C1795      C1796   1.402       .  A
C1795      C1802   1.453       .  S
C1796      C1797   1.393       .  A
C1797      C1798   1.389       .  A
C1797      C1800   1.450       .  S
C1798      C1801   1.441       .  S
C1799      N1806   1.158       .  T
C1800      N1805   1.156       .  T
C1801      N1803   1.153       .  T
C1802      N1804   1.157       .  T
C1807      C1808   1.410       .  A
C1807      C1812   1.421       .  A
C1808      C1809   1.398       .  A
C1808      C1813   1.453       .  S
C1809      C1810   1.419       .  A
C1809      C1816   1.454       .  S
C1810      C1811   1.399       .  A
C1811      C1812   1.398       .  A
C1811      C1814   1.447       .  S
C1812      C1815   1.452       .  S
C1813      N1820   1.157       .  T
C1814      N1819   1.155       .  T
C1815      N1817   1.157       .  T
C1816      N1818   1.157       .  T
C1821      N1822   1.333       .  A
C1821      N1826   1.387       .  A
C1821      C1960   1.485       .  S
N1822      C1823   1.333       .  A
C1823      N1824   1.353       .  A
C1823      C2174   1.474       .  S
N1824      C1825   1.362       .  A
C1825      N1826   1.388       .  A
C1827      N1828   1.339       .  A
C1827      N1832   1.393       .  A
C1827      C1914   1.502       .  S
N1828      C1829   1.339       .  A
C1829      N1830   1.350       .  A
C1829      C2160   1.456       .  S
N1830      C1831   1.361       .  A
C1831      N1832   1.394       .  A
C1831      C2725   1.527       .  S
C1833      N1834   1.386       .  A
C1833      C2009   1.473       .  S
N1834      C1835   1.381       .  A
C1835      N1836   1.353       .  A
C1835      C1948   1.491       .  S
C1837      N1838   1.338       .  A
C1837      C2143   1.443       .  S
C1839      C2171   1.467       .  S
C1839      C1840   1.401       .  A
C1839      C1844   1.380       .  A
C1840      C1841   1.412       .  A
C1840      H1845   1.072       .  S
C1841      C2157   1.512       .  S
C1841      C1842   1.414       .  A
C1842      C1843   1.385       .  A
C1842      H1846   1.076       .  S
C1843      C2146   1.474       .  S
C1843      C1844   1.380       .  A
C1844      H1847   1.086       .  S
O1848     Cr1866   2.112       .  S
O1848      C1856   1.279       .  A
O1849     Cr1866   1.963       .  S
O1849      C1850   1.251       .  A
C1850      C1978   1.507       .  S
C1850      O1851   1.271       .  A
O1851     Cr1867   2.092       .  S
O1852     Cr1867   1.970       .  S
O1852      C1853   1.259       .  A
C1853      C1880   1.513       .  S
C1853      O1854   1.271       .  A
O1854     Cr1868   2.087       .  S
O1855     Cr1868   1.965       .  S
O1855      C1856   1.256       .  A
C1856      C1927   1.520       .  S
O1857     Cr1866   1.956       .  S
O1857      C1865   1.254       .  A
O1858     Cr1866   2.104       .  S
O1858      C1859   1.294       .  A
C1859      C1931   1.486       .  S
C1859      O1860   1.255       .  A
O1860     Cr1867   1.940       .  S
O1861     Cr1867   2.068       .  S
O1861      C1862   1.288       .  A
C1862      C1980   1.471       .  S
C1862      O1863   1.258       .  A
O1863     Cr1868   1.955       .  S
O1864     Cr1868   2.064       .  S
O1864      C1865   1.290       .  A
C1865      C1882   1.476       .  S
Cr1866     O1869   1.782       .  S
Cr1867     O1869   1.778       .  S
Cr1868     O1869   1.777       .  S
C1870      N1871   1.342       .  A
C1870      N2603   1.391       .  A
C1870      C2012   1.495       .  S
N1871      C1872   1.340       .  A
C1872      N1873   1.358       .  A
C1872      C2129   1.495       .  S
N1873      C2602   1.364       .  A
C1874      N2601   1.359   1_545  A
C1874      N1875   1.388       .  A
C1874      C1899   1.515       .  S
N1875      C2598   1.392   1_545  A
C1876      N1877   1.339       .  A
C1876      N1881   1.389       .  A
C1876      C1911   1.488       .  S
N1877      C1878   1.338       .  A
C1878      N1879   1.352       .  A
C1878      C2118   1.475       .  S
N1879      C1880   1.360       .  A
C1880      N1881   1.388       .  A
C1882      N1883   1.331       .  A
C1882      N1887   1.384       .  A
N1883      C1884   1.332       .  A
C1884      N1885   1.362       .  A
C1884      C2101   1.492       .  S
N1885      C1886   1.371       .  A
C1886      N1887   1.384       .  A
C1886      C2000   1.516       .  S
C1888      C2132   1.485   1_556  S
C1888      C1889   1.395       .  A
C1889      C1890   1.405       .  A
C1889      H1894   1.080   1_556  S
C1890      C2115   1.502       .  S
C1891      C1892   1.404       .  A
C1891      H1895   1.082       .  S
C1892      C2104   1.491       .  S
C1892      C1893   1.398       .  A
C1893      H1896   1.083       .  S
O1897     Cr2643   2.122       .  S
O1897      C1905   1.282       .  A
O1898     Cr1915   1.973   1_554  S
C1899      O1900   1.271       .  A
O1901     Cr1916   1.975   1_554  S
O1901      C1902   1.260   1_554  A
C1902      O1903   1.271       .  A
O1903     Cr1917   2.085       .  S
O1904     Cr1917   1.965       .  S
O1904      C2633   1.256   1_545  A
C1905      C1933   1.522       .  S
C1905      O2632   1.258       .  A
O1906     Cr1915   1.978       .  S
O1906      C1914   1.261       .  A
O1907     Cr1915   2.102       .  S
O1907      C1908   1.298       .  A
C1908      C1919   1.495       .  S
C1908      O1909   1.256       .  A
O1909     Cr1916   1.954       .  S
O1910     Cr1916   2.071       .  S
O1910      C1911   1.291       .  A
C1911      O1912   1.261       .  A
O1912     Cr1917   1.971       .  S
O1913     Cr1917   2.077       .  S
O1913      C1914   1.289       .  A
Cr1915     O2625   2.109   1_545  S
Cr1915     O1918   1.784       .  S
Cr1916     O1918   1.788       .  S
Cr1917     O1918   1.785       .  S
C1919      N1924   1.330       .  A
C1921      N1922   1.358   1_554  A
N1922      C1923   1.344       .  A
C1923      C2087   1.461       .  S
C1925      N1926   1.392       .  A
C1925      N1930   1.333       .  A
C1925      C1957   1.488       .  S
N1926      C1927   1.391       .  A
C1927      N1928   1.365       .  A
N1928      C1929   1.351       .  A
C1929      N1930   1.337       .  A
C1929      C2076   1.467       .  S
C1931      N1932   1.396       .  A
C1931      N1936   1.345       .  A
N1932      C1933   1.388       .  A
C1933      N1934   1.354       .  A
N1934      C1935   1.346       .  A
C1935      N1936   1.341       .  A
C1935      C2062   1.465       .  S
C1937      C2090   1.447       .  S
C1937      C1938   1.376       .  A
C1937      C1942   1.376       .  A
C1938      C1939   1.385       .  A
C1938      H1943   1.086       .  S
C1939      C2059   1.465   1_545  S
C1939      C1940   1.408       .  A
C1940      C1941   1.412       .  A
C1940      H1944   1.079       .  S
C1941      C2073   1.494       .  S
C1941      C1942   1.405       .  A
C1942      H1945   1.083       .  S
O1946     Cr1964   2.105       .  S
O1946      C1954   1.274       .  A
O1947     Cr1964   1.965       .  S
O1947      C1948   1.251       .  A
C1948      O1949   1.268       .  A
O1949     Cr1965   2.079       .  S
O1950     Cr1965   1.962       .  S
C1951      C1984   1.506       .  S
C1951      O1952   1.269       .  A
O1953     Cr1966   1.969       .  S
O1953      C1954   1.259       .  A
O1955     Cr1964   1.960       .  S
O1955      C1963   1.258       .  A
O1956     Cr1964   2.100       .  S
O1956      C1957   1.296       .  A
C1957      O1958   1.257       .  A
O1958     Cr1965   1.953       .  S
O1959     Cr1965   2.061       .  S
O1959      C1960   1.290       .  A
C1960      O1961   1.258       .  A
O1961     Cr1966   1.973       .  S
O1962     Cr1966   2.069       .  S
O1962      C1963   1.293       .  A
C1963      C1968   1.478       .  S
Cr1964     O1967   1.774       .  S
Cr1965     O1967   1.784       .  S
Cr1966     O1967   1.770       .  S
C1968      N1969   1.388       .  A
C1968      N1973   1.325       .  A
N1969      C1970   1.389       .  A
C1970      N1971   1.369       .  A
C1970      C2003   1.519       .  S
N1971      C1972   1.358       .  A
C1972      N1973   1.323       .  A
C1972      C2045   1.457       .  S
C1974      N1975   1.339       .  A
C1974      N1979   1.388       .  A
C1974      C2006   1.488       .  S
N1975      C1976   1.337       .  A
C1976      N1977   1.349       .  A
C1976      C2034   1.464       .  S
N1977      C1978   1.360       .  A
C1978      N1979   1.385       .  A
C1980      N1981   1.340       .  A
C1980      N1985   1.389       .  A
N1981      C1982   1.333       .  A
C1982      N1983   1.347       .  A
C1982      C2017   1.449       .  S
N1983      C1984   1.355       .  A
C1984      N1985   1.384       .  A
C1986      C2020   1.464       .  S
C1986      C1987   1.385       .  A
C1986      C1991   1.400       .  A
C1987      C1988   1.379       .  A
C1987      H1992   1.086       .  S
C1988      C2031   1.460       .  S
C1988      C1989   1.386       .  A
C1989      C1990   1.411       .  A
C1989      H1993   1.077       .  S
C1990      C2776   1.506       .  S
C1990      C1991   1.414       .  A
C1991      H1994   1.074       .  S
O1995      C2003   1.278       .  A
O1996     Cr2741   1.970       .  S
O1996      C2725   1.260       .  A
C1997      C2559   1.514       .  S
C1997      O2724   1.261       .  A
C1997      O1998   1.273       .  A
O1998     Cr2014   2.087       .  S
O1999      C2000   1.255       .  A
C2000      O2001   1.277       .  A
O2001     Cr2015   2.097       .  S
O2002     Cr2743   1.970   1_545  S
O2002      C2003   1.258       .  A
O2004     Cr2013   1.973       .  S
O2004      C2012   1.258       .  A
O2005     Cr2013   2.070       .  S
O2005      C2006   1.289       .  A
C2006      O2007   1.258       .  A
O2007     Cr2014   1.965       .  S
O2008      C2009   1.289       .  A
C2009      O2010   1.253       .  A
O2010     Cr2015   1.940       .  S
O2011     Cr2015   2.074       .  S
Cr2013     O2724   1.972       .  S
Cr2013     O2016   1.782       .  S
Cr2014     O2016   1.790       .  S
Cr2015     O2730   1.962       .  S
C2017      C2018   1.411       .  A
C2018      C2019   1.401   1_556  A
C2018      C2023   1.452       .  S
C2019      C2026   1.451       .  S
C2020      C2021   1.411       .  A
C2021      C2022   1.391       .  A
C2021      C2024   1.446       .  S
C2022      C2025   1.443       .  S
C2023      N2030   1.158       .  T
C2024      N2029   1.154       .  T
C2025      N2027   1.153       .  T
C2026      N2028   1.157       .  T
C2031      C2032   1.415       .  A
C2031      C2036   1.401       .  A
C2032      C2033   1.407       .  A
C2032      C2037   1.451       .  S
C2033      C2034   1.406       .  A
C2033      C2040   1.450       .  S
C2034      C2035   1.421       .  A
C2035      C2036   1.388       .  A
C2035      C2038   1.450       .  S
C2036      C2039   1.456       .  S
C2037      N2044   1.157       .  T
C2038      N2043   1.155       .  T
C2039      N2041   1.156       .  T
C2040      N2042   1.157       .  T
C2045      C2046   1.419       .  A
C2045      C2050   1.423       .  A
C2046      C2047   1.406       .  A
C2046      C2051   1.453       .  S
C2047      C2048   1.408       .  A
C2047      C2782   1.446       .  S
C2048      C2718   1.498       .  S
C2048      C2049   1.402       .  A
C2049      C2050   1.405       .  A
C2049      C2052   1.447       .  S
C2050      C2053   1.449       .  S
C2051      N2058   1.158       .  T
C2052      N2057   1.157       .  T
C2053      N2055   1.156       .  T
C2054      C2775   1.449       .  S
C2054      N2056   1.158       .  T
C2059      C2060   1.418   1_565  A
C2059      C2792   1.411       .  A
C2060      C2061   1.394       .  A
C2060      C2065   1.449       .  S
C2061      C2790   1.405   1_545  A
C2061      C2068   1.456       .  S
C2062      C2789   1.412       .  A
C2062      C2063   1.416       .  A
C2063      C2064   1.407       .  A
C2063      C2066   1.451       .  S
C2064      C2787   1.403       .  A
C2064      C2067   1.448       .  S
C2065      N2072   1.156       .  T
C2066      N2071   1.158       .  T
C2067      N2069   1.157       .  T
C2068      N2070   1.157       .  T
C2073      C2074   1.418       .  A
C2073      C2078   1.419       .  A
C2074      C2075   1.398       .  A
C2074      C2079   1.453       .  S
C2075      C2076   1.407       .  A
C2075      C2082   1.453       .  S
C2076      C2077   1.403       .  A
C2077      C2078   1.406       .  A
C2077      C2080   1.447       .  S
C2078      C2081   1.450       .  S
C2079      N2086   1.157       .  T
C2080      N2085   1.156       .  T
C2081      N2083   1.158       .  T
C2082      N2084   1.157       .  T
C2087      C2088   1.406       .  A
C2087      C2092   1.411       .  A
C2088      C2089   1.399       .  A
C2088      C2093   1.442       .  S
C2089      C2090   1.413       .  A
C2089      C2096   1.449       .  S
C2090      C2091   1.393       .  A
C2091      C2092   1.378       .  A
C2091      C2094   1.445       .  S
C2093      N2100   1.154       .  T
C2095      N2097   1.156       .  T
C2096      N2098   1.157       .  T
C2101      C2102   1.401       .  A
C2101      C2106   1.426       .  A
C2102      C2103   1.406       .  A
C2102      C2107   1.450       .  S
C2103      C2104   1.428       .  A
C2103      C2110   1.449   1_655  S
C2104      C2105   1.409       .  A
C2105      C2106   1.407       .  A
C2105      C2108   1.451       .  S
C2106      C2109   1.454       .  S
C2107      N2114   1.156   1_655  T
C2108      N2113   1.157       .  T
C2109      N2111   1.158       .  T
C2110      N2112   1.156       .  T
C2115      C2116   1.432       .  A
C2115      C2120   1.420       .  A
C2116      C2117   1.399       .  A
C2116      C2121   1.450       .  S
C2117      C2118   1.398       .  A
C2117      C2124   1.449       .  S
C2118      C2119   1.409       .  A
C2119      C2120   1.407       .  A
C2119      C2122   1.446       .  S
C2120      C2123   1.452   1_556  S
C2121      N2128   1.157       .  T
C2122      N2127   1.154   1_556  T
C2123      N2125   1.157       .  T
C2124      N2126   1.155       .  T
C2129      C2130   1.408       .  A
C2129      C2134   1.425       .  A
C2130      C2135   1.445       .  S
C2131      C2132   1.423   1_556  A
C2131      C2138   1.452       .  S
C2133      C2134   1.410       .  A
C2134      C2137   1.453       .  S
C2136      N2141   1.157       .  T
C2138      N2140   1.156       .  T
C2143      C2144   1.392       .  A
C2143      C2148   1.404       .  A
C2144      C2145   1.400       .  A
C2145      C2146   1.430       .  A
C2145      C2152   1.452       .  S
C2146      C2147   1.414       .  A
C2147      C2148   1.389       .  A
C2147      C2150   1.452       .  S
C2148      C2151   1.453       .  S
C2149      N2156   1.156       .  T
C2150      N2155   1.156       .  T
C2151      N2153   1.156       .  T
C2152      N2154   1.158       .  T
C2157      C2158   1.436       .  A
C2157      C2162   1.421       .  A
C2158      C2159   1.412       .  A
C2158      C2163   1.449       .  S
C2159      C2160   1.400       .  A
C2159      C2166   1.453       .  S
C2160      C2161   1.398       .  A
C2161      C2162   1.395       .  A
C2161      C2164   1.452       .  S
C2162      C2165   1.449       .  S
C2163      N2170   1.158       .  T
C2164      N2169   1.156       .  T
C2165      N2167   1.155       .  T
C2166      N2168   1.157       .  T
C2171      C2172   1.411       .  A
C2171      C2176   1.422       .  A
C2172      C2173   1.402       .  A
C2172      C2177   1.452       .  S
C2173      C2174   1.415       .  A
C2173      C2180   1.452       .  S
C2174      C2175   1.397       .  A
C2175      C2176   1.398       .  A
C2175      C2178   1.445       .  S
C2176      C2179   1.451       .  S
C2177      N2184   1.157       .  T
C2178      N2183   1.155       .  T
C2179      N2181   1.156       .  T
C2180      N2182   1.157       .  T
C2185      N2186   1.333       .  A
C2185      N2190   1.388       .  A
C2185      C2324   1.488       .  S
N2186      C2187   1.333       .  A
C2187      N2188   1.354       .  A
C2187      C2538   1.476       .  S
N2188      C2189   1.363       .  A
C2189      N2190   1.390       .  A
C2189      C2630   1.511   1_554  S
C2191      N2192   1.338       .  A
C2191      N2196   1.390       .  A
C2191      C2278   1.496       .  S
N2192      C2193   1.338       .  A
C2193      N2194   1.351       .  A
C2193      C2524   1.456       .  S
N2194      C2195   1.363       .  A
C2195      N2196   1.391       .  A
C2197      N2198   1.386       .  A
C2197      C2373   1.480       .  S
N2198      C2199   1.381       .  A
C2199      N2200   1.353       .  A
C2199      C2312   1.492       .  S
C2201      N2202   1.341       .  A
C2201      C2507   1.445       .  S
C2203      C2535   1.465       .  S
C2203      C2204   1.399       .  A
C2203      C2208   1.379       .  A
C2204      C2205   1.411       .  A
C2204      H2209   1.071       .  S
C2205      C2521   1.513       .  S
C2205      C2206   1.414       .  A
C2206      C2207   1.385       .  A
C2206      H2210   1.076       .  S
C2207      C2510   1.473       .  S
C2207      C2208   1.381       .  A
C2208      H2211   1.086       .  S
O2212     Cr2230   2.115       .  S
O2212      C2220   1.281       .  A
O2213     Cr2230   1.966       .  S
O2213      C2214   1.253       .  A
C2214      C2342   1.509       .  S
C2214      O2215   1.272       .  A
O2215     Cr2231   2.092       .  S
O2216     Cr2231   1.968       .  S
O2216      C2217   1.259       .  A
C2217      C2244   1.513       .  S
C2217      O2218   1.272       .  A
O2218     Cr2232   2.087       .  S
O2219     Cr2232   1.967       .  S
O2219      C2220   1.257       .  A
C2220      C2291   1.525       .  S
O2221     Cr2230   1.956       .  S
O2221      C2229   1.253       .  A
O2222     Cr2230   2.101       .  S
O2222      C2223   1.294       .  A
C2223      C2295   1.485       .  S
C2223      O2224   1.254       .  A
O2224     Cr2231   1.941       .  S
O2225     Cr2231   2.070       .  S
O2225      C2226   1.287       .  A
C2226      C2344   1.472       .  S
C2226      O2227   1.257       .  A
O2227     Cr2232   1.952       .  S
O2228     Cr2232   2.065       .  S
O2228      C2229   1.290       .  A
C2229      C2246   1.478       .  S
Cr2230     O2233   1.783       .  S
Cr2231     O2233   1.782       .  S
Cr2232     O2233   1.779       .  S
C2234      N2235   1.339       .  A
C2234      C2376   1.496       .  S
N2235      C2236   1.338       .  A
C2236      N2237   1.354       .  A
C2236      C2493   1.489       .  S
C2238      N2239   1.388       .  A
C2238      C2263   1.521       .  S
C2240      N2241   1.341       .  A
C2240      N2245   1.388       .  A
C2240      C2275   1.486       .  S
N2241      C2242   1.339       .  A
C2242      N2243   1.353       .  A
C2242      C2482   1.476       .  S
N2243      C2244   1.361       .  A
C2244      N2245   1.386       .  A
C2246      N2247   1.331       .  A
C2246      N2251   1.385       .  A
N2247      C2248   1.332       .  A
C2248      N2249   1.360       .  A
C2248      C2465   1.489       .  S
N2249      C2250   1.370       .  A
C2250      N2251   1.385       .  A
C2250      C2364   1.517       .  S
C2252      C2496   1.480       .  S
C2252      C2253   1.395       .  A
C2253      C2254   1.406       .  A
C2253      H2258   1.080       .  S
C2254      C2479   1.500       .  S
C2255      C2256   1.402       .  A
C2255      H2259   1.081       .  S
C2256      C2468   1.486       .  S
C2256      C2257   1.397       .  A
C2257      H2260   1.083       .  S
O2261      C2269   1.283       .  A
O2262     Cr2279   1.968       .  S
O2262      C2627   1.256       .  A
C2263      O2626   1.254       .  A
C2263      O2264   1.274       .  A
O2264     Cr2644   2.107   1_554  S
O2265     Cr2280   1.979       .  S
O2265      C2266   1.262       .  A
C2266      C2553   1.514       .  S
C2266      O2267   1.271       .  A
O2267     Cr2281   2.082       .  S
O2268     Cr2281   1.962       .  S
C2269      C2297   1.525       .  S
O2270     Cr2279   1.972       .  S
O2270      C2278   1.259       .  A
O2271     Cr2279   2.096       .  S
O2271      C2272   1.296       .  A
C2272      C2283   1.494       .  S
C2272      O2273   1.255       .  A
O2273     Cr2280   1.955       .  S
O2274     Cr2280   2.068       .  S
O2274      C2275   1.290       .  A
C2275      O2276   1.261       .  A
O2276     Cr2281   1.970       .  S
O2277     Cr2281   2.072       .  S
O2277      C2278   1.287       .  A
Cr2279     O2282   1.786       .  S
Cr2280     O2628   2.104       .  S
Cr2280     O2282   1.790       .  S
Cr2281     O2282   1.786       .  S
C2283      N2648   1.394       .  A
C2283      N2288   1.330       .  A
N2284      C2647   1.396   1_554  A
C2285      N2286   1.357       .  A
C2285      C2682   1.511       .  S
N2286      C2287   1.343       .  A
C2287      C2451   1.460       .  S
C2289      N2290   1.393       .  A
C2289      N2294   1.334       .  A
C2289      C2321   1.490       .  S
N2290      C2291   1.391       .  A
C2291      N2292   1.366       .  A
N2292      C2293   1.354       .  A
C2293      N2294   1.337       .  A
C2293      C2440   1.469       .  S
C2295      N2296   1.396       .  A
C2295      N2300   1.346       .  A
N2296      C2297   1.387       .  A
C2297      N2298   1.357       .  A
N2298      C2299   1.349       .  A
C2299      N2300   1.341       .  A
C2299      C2426   1.470       .  S
C2301      C2454   1.446       .  S
C2301      C2302   1.373       .  A
C2301      C2306   1.379       .  A
C2302      C2303   1.385       .  A
C2302      H2307   1.087       .  S
C2303      C2423   1.465       .  S
C2303      C2304   1.407       .  A
C2304      C2305   1.412       .  A
C2304      H2308   1.078       .  S
C2305      C2437   1.494       .  S
C2305      C2306   1.407       .  A
C2306      H2309   1.083       .  S
O2310     Cr2328   2.105       .  S
O2310      C2318   1.275       .  A
O2311     Cr2328   1.965       .  S
O2311      C2312   1.251       .  A
C2312      O2313   1.268       .  A
O2313     Cr2329   2.077       .  S
O2314     Cr2329   1.962       .  S
O2314      C2679   1.254   1_554  A
C2315      C2348   1.506       .  S
C2315      O2678   1.250       .  A
C2315      O2316   1.270       .  A
O2316     Cr2694   2.101       .  S
O2317     Cr2330   1.966       .  S
O2317      C2318   1.258       .  A
C2318      C2649   1.522   1_654  S
O2319     Cr2328   1.939       .  S
O2319      C2327   1.253       .  A
O2320     Cr2328   2.101       .  S
O2320      C2321   1.296       .  A
C2321      O2322   1.258       .  A
O2322     Cr2329   1.956       .  S
O2323     Cr2329   2.061       .  S
O2323      C2324   1.290       .  A
C2324      O2325   1.259       .  A
O2325     Cr2330   1.977       .  S
O2326     Cr2330   2.068       .  S
O2326      C2327   1.291       .  A
C2327      C2332   1.456       .  S
Cr2328     O2331   1.774       .  S
Cr2329     O2331   1.780       .  S
Cr2330     O2680   2.104   1_554  S
Cr2330     O2331   1.774       .  S
C2332      N2333   1.383       .  A
C2332      N2337   1.319       .  A
N2333      C2334   1.387       .  A
C2334      N2335   1.375       .  A
C2334      C2367   1.514       .  S
N2335      C2336   1.358       .  A
C2336      N2337   1.317       .  A
C2336      C2409   1.452       .  S
C2338      N2339   1.337       .  A
C2338      N2343   1.389       .  A
C2338      C2370   1.488       .  S
N2339      C2340   1.335       .  A
C2340      N2341   1.349       .  A
C2340      C2398   1.459       .  S
N2341      C2342   1.360       .  A
C2342      N2343   1.386       .  A
C2344      N2345   1.343       .  A
C2344      N2349   1.389       .  A
N2345      C2346   1.336       .  A
C2346      N2347   1.346       .  A
C2346      C2381   1.453       .  S
N2347      C2348   1.355       .  A
C2348      N2349   1.382       .  A
C2350      C2384   1.470       .  S
C2350      C2351   1.384       .  A
C2350      C2355   1.400       .  A
C2351      C2352   1.379       .  A
C2351      H2356   1.086       .  S
C2352      C2395   1.458       .  S
C2352      C2353   1.384   1_565  A
C2353      C2354   1.412       .  A
C2353      H2357   1.075       .  S
C2354      C2355   1.418   1_545  A
C2355      H2358   1.074   1_554  S
O2359      C2367   1.279       .  A
C2361      O2362   1.273   1_545  A
O2362     Cr2378   2.093       .  S
O2363      C2364   1.255       .  A
C2364      O2365   1.278       .  A
O2365     Cr2379   2.101       .  S
O2366      C2367   1.254       .  A
O2368     Cr2377   1.973       .  S
O2368      C2376   1.258       .  A
O2369     Cr2377   2.074       .  S
O2369      C2370   1.291       .  A
C2370      O2371   1.257       .  A
O2371     Cr2378   1.963       .  S
O2372      C2373   1.290       .  A
C2373      O2374   1.254       .  A
O2374     Cr2379   1.945       .  S
O2375     Cr2379   2.077       .  S
Cr2377     O2380   1.783       .  S
Cr2378     O2380   1.790       .  S
C2381      C2382   1.410       .  A
C2381      C2750   1.404       .  A
C2382      C2383   1.402       .  A
C2382      C2387   1.452       .  S
C2383      C2748   1.410       .  A
C2383      C2390   1.451       .  S
C2384      C2747   1.412   1_554  A
C2384      C2385   1.412   1_554  A
C2385      C2386   1.396       .  A
C2385      C2388   1.447   1_556  S
C2386      C2745   1.405       .  A
C2386      C2389   1.448       .  S
C2387      N2394   1.157       .  T
C2388      N2393   1.155       .  T
C2389      N2391   1.155       .  T
C2390      N2392   1.157       .  T
C2395      C2396   1.415       .  A
C2395      C2400   1.401       .  A
C2396      C2397   1.406       .  A
C2396      C2401   1.451       .  S
C2397      C2398   1.404       .  A
C2397      C2404   1.450       .  S
C2398      C2399   1.419       .  A
C2399      C2400   1.388       .  A
C2399      C2402   1.452       .  S
C2400      C2403   1.453       .  S
C2401      N2408   1.157       .  T
C2402      N2407   1.156       .  T
C2403      N2405   1.156       .  T
C2404      N2406   1.157       .  T
C2409      C2410   1.421       .  A
C2409      C2414   1.421       .  A
C2410      C2411   1.403       .  A
C2410      C2415   1.454       .  S
C2411      C2412   1.403       .  A
C2412      C2413   1.402       .  A
C2413      C2414   1.407       .  A
C2413      C2416   1.446       .  S
C2414      C2417   1.447       .  S
C2415      N2422   1.157       .  T
C2416      N2421   1.156       .  T
C2417      N2419   1.156       .  T
C2418      N2420   1.158       .  T
C2423      C2424   1.420       .  A
C2424      C2425   1.395       .  A
C2424      C2429   1.449       .  S
C2425      C2432   1.457       .  S
C2426      C2427   1.418       .  A
C2427      C2428   1.409       .  A
C2427      C2430   1.452       .  S
C2428      C2431   1.449       .  S
C2429      N2436   1.156       .  T
C2430      N2435   1.158       .  T
C2431      N2433   1.157       .  T
C2432      N2434   1.157       .  T
C2437      C2438   1.416       .  A
C2437      C2442   1.416       .  A
C2438      C2439   1.402       .  A
C2438      C2443   1.453       .  S
C2439      C2440   1.410       .  A
C2439      C2446   1.452       .  S
C2440      C2441   1.404       .  A
C2441      C2442   1.406       .  A
C2441      C2444   1.447       .  S
C2442      C2445   1.450       .  S
C2443      N2450   1.157       .  T
C2444      N2449   1.156       .  T
C2445      N2447   1.158       .  T
C2446      N2448   1.157       .  T
C2451      C2452   1.407       .  A
C2451      C2456   1.411       .  A
C2452      C2453   1.401       .  A
C2452      C2457   1.441       .  S
C2453      C2454   1.411       .  A
C2453      C2460   1.449       .  S
C2454      C2455   1.392       .  A
C2455      C2456   1.377       .  A
C2455      C2458   1.444       .  S
C2457      N2464   1.154       .  T
C2459      N2461   1.156       .  T
C2460      N2462   1.156       .  T
C2465      C2466   1.403       .  A
C2465      C2470   1.426       .  A
C2466      C2467   1.404       .  A
C2466      C2471   1.448       .  S
C2467      C2468   1.424       .  A
C2467      C2474   1.450   1_655  S
C2468      C2469   1.406       .  A
C2469      C2470   1.406       .  A
C2469      C2472   1.451       .  S
C2470      C2473   1.453       .  S
C2471      N2478   1.156   1_655  T
C2472      N2477   1.157       .  T
C2473      N2475   1.157       .  T
C2474      N2476   1.156       .  T
C2479      C2480   1.431       .  A
C2479      C2484   1.417       .  A
C2480      C2481   1.398       .  A
C2480      C2485   1.451       .  S
C2481      C2482   1.399       .  A
C2481      C2488   1.450       .  S
C2482      C2483   1.410       .  A
C2483      C2484   1.407       .  A
C2483      C2486   1.445       .  S
C2484      C2487   1.452       .  S
C2485      N2492   1.158       .  T
C2486      N2491   1.154       .  T
C2487      N2489   1.157       .  T
C2488      N2490   1.156       .  T
C2493      C2494   1.408   1_554  A
C2493      C2498   1.423       .  A
C2494      C2859   1.399       .  A
C2494      C2499   1.443       .  S
C2495      C2858   1.401       .  A
C2495      C2496   1.420       .  A
C2495      C2502   1.452       .  S
C2496      C2861   1.406       .  A
C2497      C2860   1.404   1_554  A
C2497      C2498   1.405       .  A
C2498      C2501   1.453       .  S
C2499      N2870   1.154       .  T
C2500      N2505   1.157       .  T
C2502      N2504   1.156       .  T
N2506      C2863   1.158       .  T
C2507      C2508   1.393       .  A
C2507      C2512   1.405       .  A
C2508      C2509   1.400       .  A
C2509      C2510   1.430       .  A
C2509      C2516   1.453       .  S
C2510      C2511   1.413       .  A
C2511      C2512   1.388       .  A
C2511      C2514   1.451       .  S
C2512      C2515   1.455       .  S
C2513      N2520   1.156       .  T
C2514      N2519   1.156       .  T
C2515      N2517   1.157       .  T
C2516      N2518   1.158       .  T
C2521      C2522   1.436       .  A
C2521      C2526   1.421       .  A
C2522      C2523   1.412       .  A
C2522      C2527   1.449       .  S
C2523      C2524   1.400       .  A
C2523      C2530   1.452       .  S
C2524      C2525   1.398       .  A
C2525      C2526   1.395       .  A
C2525      C2528   1.453       .  S
C2526      C2529   1.447       .  S
C2527      N2534   1.158       .  T
C2528      N2533   1.156       .  T
C2529      N2531   1.154       .  T
C2530      N2532   1.157       .  T
C2535      C2536   1.407       .  A
C2535      C2540   1.420       .  A
C2536      C2537   1.401       .  A
C2536      C2541   1.451       .  S
C2537      C2538   1.417       .  A
C2537      C2544   1.452       .  S
C2538      C2539   1.399       .  A
C2539      C2540   1.399       .  A
C2539      C2542   1.446       .  S
C2540      C2543   1.451       .  S
C2541      N2548   1.157       .  T
C2542      N2547   1.155       .  T
C2543      N2545   1.156       .  T
C2544      N2546   1.157       .  T
C2549      N2550   1.327       .  A
C2549      N2554   1.391       .  A
C2549      C2688   1.492       .  S
N2550      C2551   1.328       .  A
C2551      N2552   1.353       .  A
C2551      C2902   1.474       .  S
N2552      C2553   1.361       .  A
C2553      N2554   1.393       .  A
C2555      N2556   1.342       .  A
C2555      N2560   1.386       .  A
C2555      C2642   1.495       .  S
N2556      C2557   1.342       .  A
C2557      N2558   1.352       .  A
C2557      C2888   1.456       .  S
N2558      C2559   1.359       .  A
C2559      N2560   1.386       .  A
C2561      N2562   1.387       .  A
C2561      C2737   1.477       .  S
N2562      C2563   1.383       .  A
C2563      N2564   1.359       .  A
C2563      C2676   1.500       .  S
C2565      N2566   1.336       .  A
C2565      C2871   1.465       .  S
C2567      C2899   1.465       .  S
C2567      C2568   1.398       .  A
C2567      C2572   1.379       .  A
C2568      C2569   1.412       .  A
C2568      H2573   1.070       .  S
C2569      C2885   1.526       .  S
C2569      C2570   1.423       .  A
C2570      C2571   1.393       .  A
C2570      H2574   1.073       .  S
C2571      C2874   1.477       .  S
C2571      C2572   1.377       .  A
C2572      H2575   1.086       .  S
O2576     Cr2594   2.127       .  S
O2576      C2584   1.283       .  A
O2577     Cr2594   1.970       .  S
O2577      C2578   1.256       .  A
C2578      C2706   1.518       .  S
C2578      O2579   1.270       .  A
O2579     Cr2595   2.090       .  S
O2580     Cr2595   1.973       .  S
O2580      C2581   1.261       .  A
C2581      C2608   1.518       .  S
C2581      O2582   1.274       .  A
O2582     Cr2596   2.097       .  S
O2583     Cr2596   1.958       .  S
O2583      C2584   1.254       .  A
C2584      C2655   1.527       .  S
O2585     Cr2594   1.968       .  S
O2585      C2593   1.254       .  A
O2586     Cr2594   2.094       .  S
O2586      C2587   1.295       .  A
C2587      C2659   1.473       .  S
C2587      O2588   1.253       .  A
O2588     Cr2595   1.934       .  S
O2589     Cr2595   2.062       .  S
O2589      C2590   1.286       .  A
C2590      C2708   1.468       .  S
C2590      O2591   1.261       .  A
O2591     Cr2596   1.960       .  S
O2592     Cr2596   2.085       .  S
O2592      C2593   1.294       .  A
C2593      C2610   1.500       .  S
Cr2594     O2597   1.784       .  S
Cr2595     O2597   1.785       .  S
Cr2596     O2597   1.778       .  S
C2598      N2599   1.337       .  A
C2598      C2740   1.484       .  S
N2599      C2600   1.335       .  A
C2600      N2601   1.349       .  A
C2600      C2857   1.476       .  S
C2602      N2603   1.388       .  A
C2602      C2627   1.526       .  S
C2604      N2605   1.344       .  A
C2604      N2609   1.391       .  A
C2604      C2639   1.488       .  S
N2605      C2606   1.341       .  A
C2606      N2607   1.352       .  A
C2606      C2846   1.485       .  S
N2607      C2608   1.358       .  A
C2608      N2609   1.386       .  A
C2610      N2611   1.336       .  A
C2610      N2615   1.394       .  A
N2611      C2612   1.340       .  A
C2612      N2613   1.351       .  A
C2612      C2829   1.477       .  S
N2613      C2614   1.358       .  A
C2614      N2615   1.392       .  A
C2614      C2728   1.519       .  S
C2616      C2860   1.473       .  S
C2616      C2617   1.396       .  A
C2617      C2618   1.399       .  A
C2617      H2622   1.083       .  S
C2618      C2843   1.497       .  S
C2619      C2620   1.404       .  A
C2619      H2623   1.081       .  S
C2620      C2832   1.492       .  S
C2620      C2621   1.398       .  A
C2621      H2624   1.083       .  S
O2625      C2633   1.276       .  A
O2626     Cr2643   1.961   1_554  S
C2627      O2628   1.275       .  A
O2629     Cr2644   1.973   1_554  S
O2629      C2630   1.257   1_554  A
C2630      O2631   1.268       .  A
O2631     Cr2645   2.083       .  S
O2632     Cr2645   1.964       .  S
C2633      C2661   1.516       .  S
O2634     Cr2643   1.978       .  S
O2634      C2642   1.263       .  A
O2635     Cr2643   2.119       .  S
O2635      C2636   1.299       .  A
C2636      C2647   1.486       .  S
C2636      O2637   1.250       .  A
O2637     Cr2644   1.923       .  S
O2638     Cr2644   2.085       .  S
O2638      C2639   1.294       .  A
C2639      O2640   1.260       .  A
O2640     Cr2645   1.963       .  S
O2641     Cr2645   2.069       .  S
O2641      C2642   1.285       .  A
Cr2643     O2646   1.782       .  S
Cr2644     O2646   1.784       .  S
Cr2645     O2646   1.779       .  S
C2647      N2652   1.327       .  A
C2649      N2650   1.357   1_455  A
N2650      C2651   1.348   1_655  A
C2651      C2815   1.473   1_455  S
C2653      N2654   1.393       .  A
C2653      N2658   1.332       .  A
C2653      C2685   1.489       .  S
N2654      C2655   1.392       .  A
C2655      N2656   1.366       .  A
N2656      C2657   1.352       .  A
C2657      N2658   1.335       .  A
C2657      C2804   1.482       .  S
C2659      N2660   1.392       .  A
C2659      N2664   1.334       .  A
N2660      C2661   1.389       .  A
C2661      N2662   1.359       .  A
N2662      C2663   1.348       .  A
C2663      N2664   1.331       .  A
C2663      C2790   1.450       .  S
C2665      C2818   1.456       .  S
C2665      C2666   1.391       .  A
C2665      C2670   1.374       .  A
C2666      C2667   1.394       .  A
C2666      H2671   1.084       .  S
C2667      C2787   1.463       .  S
C2667      C2668   1.408       .  A
C2668      C2669   1.402       .  A
C2668      H2672   1.083       .  S
C2669      C2801   1.485       .  S
C2669      C2670   1.395       .  A
C2670      H2673   1.084       .  S
O2674     Cr2692   2.103       .  S
O2674      C2682   1.273       .  A
O2675     Cr2692   1.959       .  S
O2675      C2676   1.249       .  A
C2676      O2677   1.271       .  A
O2677     Cr2693   2.093       .  S
O2678     Cr2693   1.961       .  S
C2679      C2712   1.511       .  S
C2679      O2680   1.277       .  A
O2681     Cr2694   1.966       .  S
O2681      C2682   1.253       .  A
O2683     Cr2692   1.954       .  S
O2683      C2691   1.259       .  A
O2684     Cr2692   2.106       .  S
O2684      C2685   1.298       .  A
C2685      O2686   1.258       .  A
O2686     Cr2693   1.951       .  S
O2687     Cr2693   2.086       .  S
O2687      C2688   1.298       .  A
C2688      O2689   1.257       .  A
O2689     Cr2694   1.971       .  S
O2690     Cr2694   2.077       .  S
O2690      C2691   1.292       .  A
C2691      C2696   1.472       .  S
Cr2692     O2695   1.771       .  S
Cr2693     O2695   1.770       .  S
Cr2694     O2695   1.770       .  S
C2696      N2697   1.386       .  A
C2696      N2701   1.325       .  A
N2697      C2698   1.388       .  A
C2698      N2699   1.372       .  A
C2698      C2731   1.520       .  S
N2699      C2700   1.359       .  A
C2700      N2701   1.326       .  A
C2700      C2773   1.460       .  S
C2702      N2703   1.339       .  A
C2702      N2707   1.393       .  A
C2702      C2734   1.497       .  S
N2703      C2704   1.337       .  A
C2704      N2705   1.350       .  A
C2704      C2762   1.466       .  S
N2705      C2706   1.360       .  A
C2706      N2707   1.391       .  A
C2708      N2709   1.335       .  A
C2708      N2713   1.385       .  A
N2709      C2710   1.330       .  A
C2710      N2711   1.354       .  A
C2710      C2745   1.462       .  S
N2711      C2712   1.362       .  A
C2712      N2713   1.382       .  A
C2714      C2748   1.462       .  S
C2714      C2715   1.387       .  A
C2714      C2719   1.396       .  A
C2715      C2716   1.386       .  A
C2715      H2720   1.085       .  S
C2716      C2759   1.454       .  S
C2716      C2717   1.389   1_565  A
C2717      C2718   1.413       .  A
C2717      H2721   1.080       .  S
C2718      C2719   1.406   1_545  A
C2719      H2722   1.079       .  S
O2723      C2731   1.279       .  A
C2725      O2726   1.276   1_545  A
O2726     Cr2742   2.105       .  S
O2727      C2728   1.263       .  A
C2728      O2729   1.275       .  A
O2729     Cr2743   2.091       .  S
O2730      C2731   1.256       .  A
O2732     Cr2741   1.962   1_565  S
O2732      C2740   1.256       .  A
O2733     Cr2741   2.076   1_565  S
O2733      C2734   1.291       .  A
C2734      O2735   1.256       .  A
O2735     Cr2742   1.975       .  S
O2736      C2737   1.284       .  A
C2737      O2738   1.258       .  A
O2738     Cr2743   1.961       .  S
O2739     Cr2743   2.071       .  S
Cr2741     O2744   1.786   1_545  S
Cr2742     O2744   1.787       .  S
C2745      C2746   1.413       .  A
C2746      C2747   1.403       .  A
C2746      C2751   1.453       .  S
C2747      C2754   1.451       .  S
C2748      C2749   1.409       .  A
C2749      C2750   1.394       .  A
C2749      C2752   1.446       .  S
C2750      C2753   1.453       .  S
C2751      N2758   1.158       .  T
C2752      N2757   1.154       .  T
C2753      N2755   1.157       .  T
C2754      N2756   1.157       .  T
C2759      C2760   1.407       .  A
C2759      C2764   1.401       .  A
C2760      C2761   1.407       .  A
C2760      C2765   1.449       .  S
C2761      C2762   1.410       .  A
C2761      C2768   1.449       .  S
C2762      C2763   1.420       .  A
C2763      C2764   1.388       .  A
C2763      C2766   1.451       .  S
C2764      C2767   1.457       .  S
C2765      N2772   1.157       .  T
C2766      N2771   1.155       .  T
C2767      N2769   1.156       .  T
C2768      N2770   1.157       .  T
C2773      C2774   1.417       .  A
C2773      C2778   1.414       .  A
C2774      C2775   1.406       .  A
C2774      C2779   1.455       .  S
C2775      C2776   1.412       .  A
C2776      C2777   1.410       .  A
C2777      C2778   1.406       .  A
C2777      C2780   1.449       .  S
C2778      C2781   1.451       .  S
C2779      N2786   1.157       .  T
C2780      N2785   1.156       .  T
C2781      N2783   1.156       .  T
C2782      N2784   1.157       .  T
C2787      C2788   1.408       .  A
C2788      C2789   1.393       .  A
C2788      C2793   1.453       .  S
C2789      C2796   1.452       .  S
C2790      C2791   1.411       .  A
C2791      C2792   1.402       .  A
C2791      C2794   1.453       .  S
C2792      C2795   1.449       .  S
C2793      N2800   1.156       .  T
C2794      N2799   1.157       .  T
C2795      N2797   1.156       .  T
C2796      N2798   1.156       .  T
C2801      C2802   1.415       .  A
C2801      C2806   1.420       .  A
C2802      C2803   1.397       .  A
C2802      C2807   1.456       .  S
C2803      C2804   1.418       .  A
C2803      C2810   1.454       .  S
C2804      C2805   1.409       .  A
C2805      C2806   1.409       .  A
C2805      C2808   1.450       .  S
C2806      C2809   1.450       .  S
C2807      N2814   1.157       .  T
C2808      N2813   1.157       .  T
C2809      N2811   1.157       .  T
C2810      N2812   1.156       .  T
C2815      C2816   1.412       .  A
C2815      C2820   1.414   1_655  A
C2816      C2817   1.399       .  A
C2816      C2821   1.440       .  S
C2817      C2818   1.412       .  A
C2817      C2824   1.451       .  S
C2818      C2819   1.397       .  A
C2819      C2820   1.392   1_655  A
C2819      C2822   1.444   1_655  S
C2821      N2828   1.154       .  T
C2823      N2825   1.157       .  T
C2824      N2826   1.157       .  T
C2829      C2830   1.395       .  A
C2829      C2834   1.408       .  A
C2830      C2831   1.400       .  A
C2830      C2835   1.445       .  S
C2831      C2832   1.427       .  A
C2831      C2838   1.448       .  S
C2832      C2833   1.415       .  A
C2833      C2834   1.405       .  A
C2833      C2836   1.441       .  S
C2834      C2837   1.454       .  S
C2835      N2842   1.154   1_655  T
C2836      N2841   1.155       .  T
C2837      N2839   1.158       .  T
C2838      N2840   1.157       .  T
C2843      C2844   1.424       .  A
C2843      C2848   1.417       .  A
C2844      C2845   1.399       .  A
C2844      C2849   1.448       .  S
C2845      C2846   1.407       .  A
C2845      C2852   1.453       .  S
C2846      C2847   1.417       .  A
C2847      C2848   1.411       .  A
C2847      C2850   1.450       .  S
C2848      C2851   1.452   1_556  S
C2849      N2856   1.155       .  T
C2850      N2855   1.156   1_556  T
C2851      N2853   1.157       .  T
C2852      N2854   1.156       .  T
C2857      C2858   1.412       .  A
C2857      C2862   1.420       .  A
C2858      C2863   1.455       .  S
C2859      C2860   1.415       .  A
C2859      C2866   1.457       .  S
C2861      C2862   1.403       .  A
C2862      C2865   1.453       .  S
C2864      N2869   1.157       .  T
C2866      N2868   1.157       .  T
C2871      C2872   1.402       .  A
C2871      C2876   1.414       .  A
C2872      C2873   1.402       .  A
C2873      C2874   1.423       .  A
C2873      C2880   1.452       .  S
C2874      C2875   1.413       .  A
C2875      C2876   1.396       .  A
C2875      C2878   1.452       .  S
C2876      C2879   1.451       .  S
C2877      N2884   1.156   1_455  T
C2878      N2883   1.157       .  T
C2879      N2881   1.155       .  T
C2880      N2882   1.157       .  T
C2885      C2886   1.444       .  A
C2885      C2890   1.419       .  A
C2886      C2887   1.417       .  A
C2886      C2891   1.447       .  S
C2887      C2888   1.402       .  A
C2887      C2894   1.454       .  S
C2888      C2889   1.394       .  A
C2889      C2890   1.390       .  A
C2889      C2892   1.450       .  S
C2890      C2893   1.446       .  S
C2891      N2898   1.158       .  T
C2892      N2897   1.157       .  T
C2893      N2895   1.155       .  T
C2894      N2896   1.157       .  T
C2899      C2900   1.408       .  A
C2899      C2904   1.422       .  A
C2900      C2901   1.397       .  A
C2900      C2905   1.452       .  S
C2901      C2902   1.422       .  A
C2901      C2908   1.455       .  S
C2902      C2903   1.399       .  A
C2903      C2904   1.398       .  A
C2903      C2906   1.449       .  S
C2904      C2907   1.451       .  S
C2905      N2912   1.157       .  T
C2906      N2911   1.156       .  T
C2907      N2909   1.156       .  T
C2908      N2910   1.157       .  T
