geometry optimzed in LAMMPS
_audit_creation_date              2020-11-30 
_audit_creation_method            'lammps2cif' 
_symmetry_space_group_name_H-M    'P1' 
_symmetry_Int_Tables_number       1 
_symmetry_cell_setting            triclinic 
loop_ 
_symmetry_equiv_pos_as_xyz 
  x,y,z 
_cell_length_a                    42.06878617 
_cell_length_b                    25.35818683593727 
_cell_length_c                    43.61628557465711 
_cell_angle_alpha                 89.99713677071547 
_cell_angle_beta                  89.99982803234165 
_cell_angle_gamma                 89.99694964018087 
loop_ 
_atom_site_label 
_atom_site_type_symbol 
_atom_site_fract_x 
_atom_site_fract_y 
_atom_site_fract_z 
_atom_site_charge 
In1        In  0.90485444  0.39556946  0.24986372     1.36900
C2          C  0.84248159  0.38061740  0.24997339     0.79700
O3          O  0.90330992  0.39146796  0.30120353    -0.58700
O4          O  0.91710768  0.46390180  0.28050852    -0.49600
C5          C  0.95218256  0.32639620  0.24980825     0.72400
O6          O  0.92344529  0.31232895  0.24999373    -0.45300
C7          C  0.91151587  0.43865806  0.19482511     0.77100
O8          O  0.86186517  0.34267875  0.24980741    -0.56300
O9          O  0.91692878  0.46391367  0.21915639    -0.46400
O10         O  0.85486471  0.42578440  0.25008891    -0.52800
C11         C  0.91180941  0.43864837  0.30486551     0.87300
O12         O  0.95673571  0.37544421  0.24964186    -0.54700
O13         O  0.90304660  0.39147125  0.19852958    -0.57900
In14       In  0.62196295  0.33863194  0.24985290     1.36900
C15         C  0.68432567  0.35369505  0.24996333     0.79700
O16         O  0.62353158  0.34271840  0.30119235    -0.58700
O17         O  0.60975058  0.27027686  0.28050075    -0.49600
C18         C  0.57459165  0.40773478  0.24980158     0.72400
O19         O  0.60332127  0.42184379  0.24998047    -0.44500
C20         C  0.61534111  0.29552149  0.19481657     0.77100
O21         O  0.66491818  0.39160035  0.24979227    -0.56300
O22         O  0.60992680  0.27026700  0.21914944    -0.46400
O23         O  0.67197118  0.30850648  0.25008223    -0.52800
C24         C  0.61505280  0.29552764  0.30485640     0.87300
O25         O  0.57006673  0.35867941  0.24963797    -0.54700
O26         O  0.62378979  0.34271841  0.19851809    -0.57900
In27       In  0.90484306  0.08868665  0.49980372     1.36900
C28         C  0.84246616  0.10359768  0.99969600     0.79700
O29         O  0.90328610  0.09278961  0.44846445    -0.58700
O30         O  0.91711865  0.02036804  0.46915568    -0.49600
C31         C  0.95215644  0.15787991  0.49985374     0.72400
O32         O  0.92341616  0.17193614  0.99967243    -0.44500
C33         C  0.91151281  0.04559713  0.05484132     0.77100
O34         O  0.86183781  0.14154982  0.49986667    -0.56300
O35         O  0.91693218  0.02034577  0.03050948    -0.46400
O36         O  0.85486329  0.05843912  0.99957531    -0.52800
C37         C  0.91180444  0.04561746  0.44480015     0.87300
O38         O  0.95671953  0.10883368  0.50002053    -0.54700
O39         O  0.90303408  0.09278102  0.05113791    -0.57900
In40       In  0.62193630  0.14543691  0.49980420     1.36900
C41         C  0.68430162  0.13040115  0.99969738     0.79700
O42         O  0.62351850  0.14134077  0.44846556    -0.58700
O43         O  0.60971363  0.21377950  0.46914904    -0.49600
C44         C  0.57457223  0.07632795  0.49986017     0.72400
O45         O  0.60330340  0.06222216  0.99967961    -0.44500
C46         C  0.61531687  0.18855224  0.05483931     0.77100
O47         O  0.66490301  0.09248634  0.49987013    -0.56300
O48         O  0.60988867  0.21380019  0.03050653    -0.46400
O49         O  0.67193678  0.17558417  0.99957460    -0.52800
C50         C  0.61503005  0.18852713  0.44479638     0.87300
O51         O  0.57004232  0.12538289  0.50002304    -0.54700
O52         O  0.62377530  0.14135851  0.05113816    -0.57900
In53       In  0.40482142  0.14541635  0.24987014     1.36900
C54         C  0.34245090  0.13043630  0.24997527     0.79700
O55         O  0.40325619  0.14132625  0.30121360    -0.58700
O56         O  0.41706832  0.21375162  0.28052162    -0.49600
C57         C  0.45214193  0.07621742  0.24981399     0.72400
O58         O  0.42340229  0.06216611  0.24999611    -0.44500
C59         C  0.41146801  0.18853656  0.19483128     0.77100
O60         O  0.36184048  0.09250662  0.24980651    -0.56300
O61         O  0.41689700  0.21377311  0.21916594    -0.46400
O62         O  0.35482670  0.17560873  0.25009622    -0.52800
C63         C  0.41175485  0.18850636  0.30487840     0.87300
O64         O  0.45670252  0.12526395  0.24965059    -0.54700
O65         O  0.40299576  0.14135045  0.19853191    -0.57900
In66       In  0.12191669  0.08867073  0.24983692     1.36900
C67         C  0.18428997  0.10360652  0.24994869     0.79700
O68         O  0.12347690  0.09276582  0.30117505    -0.58700
O69         O  0.10964971  0.02034562  0.28048602    -0.49600
C70         C  0.07460124  0.15786936  0.24978532     0.72400
O71         O  0.10334110  0.17192085  0.24996646    -0.44500
C72         C  0.11525833  0.04557547  0.19480267     0.77100
O73         O  0.16490998  0.14154998  0.24977255    -0.56300
O74         O  0.10983630  0.02032608  0.21913571    -0.46400
O75         O  0.17190302  0.05844238  0.25007145    -0.52800
C76         C  0.11496449  0.04559223  0.30484055     0.87300
O77         O  0.07003871  0.10882372  0.24961873    -0.54700
O78         O  0.12373279  0.09275974  0.19850327    -0.57900
In79       In  0.40480677  0.33866252  0.49981110     1.36900
C80         C  0.34243536  0.35365728  0.99969821     0.79700
O81         O  0.40324553  0.34273517  0.44846709    -0.58700
O82         O  0.41705517  0.27031400  0.46916814    -0.49600
C83         C  0.45212777  0.40785400  0.49986215     0.72400
O84         O  0.42338804  0.42190996  0.99968099    -0.44500
C85         C  0.41145452  0.29555402  0.05485353     0.77100
O86         O  0.36182628  0.39158170  0.49986278    -0.56300
O87         O  0.41688433  0.27031182  0.03052072    -0.46400
O88         O  0.35481014  0.30848171  0.99958700    -0.52800
C89         C  0.41174439  0.29555230  0.44480811     0.87300
O90         O  0.45668820  0.35880676  0.50002738    -0.54700
O91         O  0.40297911  0.34273927  0.05114939    -0.57900
In92       In  0.12190431  0.39555102  0.49978702     1.36900
C93         C  0.18427613  0.38057690  0.99968107     0.79700
O94         O  0.12346960  0.39145739  0.44844885    -0.58700
O95         O  0.10964465  0.46388144  0.46913763    -0.49600
C96         C  0.07457726  0.32638162  0.49984129     0.72400
O97         O  0.10331483  0.31231242  0.99965850    -0.44500
C98         C  0.11525180  0.43864878  0.05482168     0.77100
O99         O  0.16488970  0.34264576  0.49985205    -0.56300
O100        O  0.10983437  0.46390250  0.03048886    -0.46400
O101        O  0.17189632  0.42574881  0.99955880    -0.52800
C102        C  0.11495985  0.43863376  0.44478322     0.87300
O103        O  0.07002277  0.37543006  0.50000680    -0.54700
O104        O  0.12371888  0.39145948  0.05112055    -0.57900
C105        C  0.21808715  0.37326632  0.99963996    -0.16300
C106        C  0.24662534  0.36912505  0.99962347     0.07700
C107        C  0.28008715  0.36512526  0.99962767     0.09600
C108        C  0.30862506  0.36097866  0.99965090    -0.17200
C109        C  0.11207293  0.46201004  0.41495629    -0.16300
C110        C  0.11089294  0.48107354  0.38966673     0.07700
C111        C  0.11089364  0.00315439  0.35995707     0.09600
C112        C  0.11207493  0.02221741  0.33466746    -0.17200
C113        C  0.11250042  0.02220171  0.16496324    -0.16300
C114        C  0.11137622  0.00314624  0.13966921     0.07700
C115        C  0.11137499  0.48107796  0.10995573     0.09600
C116        C  0.11249682  0.46202275  0.08466145    -0.17200
C117        C  0.41463054  0.21189038  0.33470599    -0.16300
C118        C  0.41580371  0.23096963  0.35999260     0.07700
C119        C  0.41580122  0.25307559  0.38969773     0.09600
C120        C  0.41462400  0.27215887  0.41498320    -0.17200
C121        C  0.41421486  0.21192681  0.16499094    -0.16300
C122        C  0.41533101  0.23100255  0.13969887     0.07700
C123        C  0.41532713  0.25309782  0.10998809     0.09600
C124        C  0.41420527  0.27217070  0.08469549    -0.17200
C125        C  0.21810177  0.11089526  0.24999656    -0.16300
C126        C  0.24664050  0.11501622  0.25002167     0.07700
C127        C  0.28010258  0.11899327  0.25002898     0.09600
C128        C  0.30864077  0.12312486  0.25001482    -0.17200
C129        C  0.47794541  0.44484468  0.49987118    -0.16300
C130        C  0.50018883  0.47481633  0.49987295     0.07700
C131        C  0.52647764  0.00943119  0.49987293     0.09600
C132        C  0.54873167  0.03938120  0.49987086    -0.17200
C133        C  0.04875486  0.28940429  0.49985221    -0.16300
C134        C  0.02650753  0.25944335  0.49985615     0.07700
C135        C  0.00021926  0.22483160  0.49985944     0.09600
C136        C  0.97797335  0.19486771  0.49986055    -0.17200
C137        C  0.80865230  0.11086983  0.99965296    -0.16300
C138        C  0.78011225  0.11497350  0.99963383     0.07700
C139        C  0.74664903  0.11893504  0.99963431     0.09600
C140        C  0.71811044  0.12306590  0.99965412    -0.17200
C141        C  0.54874768  0.44467895  0.24979380    -0.16300
C142        C  0.52649215  0.47462940  0.24979433     0.07700
C143        C  0.50020288  0.00924727  0.24979749     0.09600
C144        C  0.47795943  0.03922241  0.24980185    -0.17200
C145        C  0.61216649  0.21190840  0.41496786    -0.16300
C146        C  0.61100037  0.23097818  0.38967876     0.07700
C147        C  0.61100664  0.25306868  0.35997072     0.09600
C148        C  0.61218219  0.27214097  0.33468274    -0.17200
C149        C  0.61259918  0.27214128  0.16497661    -0.16300
C150        C  0.61147926  0.25307892  0.13968362     0.07700
C151        C  0.61147224  0.23100092  0.10997180     0.09600
C152        C  0.61258185  0.21193680  0.08467880    -0.17200
C153        C  0.97800622  0.28941704  0.24979494    -0.16300
C154        C  0.00025387  0.25945297  0.24978837     0.07700
C155        C  0.02654080  0.22483403  0.24978211     0.09600
C156        C  0.04878484  0.19486254  0.24977916    -0.17200
C157        C  0.91470303  0.46202371  0.33469115    -0.16300
C158        C  0.91588684  0.48109155  0.35997865     0.07700
C159        C  0.91588617  0.00317971  0.38968571     0.09600
C160        C  0.91470077  0.02224593  0.41497362    -0.17200
C161        C  0.91427751  0.02222466  0.08468229    -0.16300
C162        C  0.91540491  0.00316437  0.10997633     0.07700
C163        C  0.91540493  0.48108750  0.13968919     0.09600
C164        C  0.91427812  0.46202856  0.16498352    -0.17200
C165        C  0.80867007  0.37332088  0.25001628    -0.16300
C166        C  0.78013158  0.36919220  0.25003406     0.07700
C167        C  0.74666989  0.36520049  0.25003124     0.09600
C168        C  0.71813271  0.36104769  0.25000917    -0.17200
In169      In  0.90485450  0.39556945  0.74986369     1.36900
C170        C  0.84248163  0.38061739  0.74997343     0.79700
O171        O  0.90331006  0.39146792  0.80120360    -0.58700
O172        O  0.91710760  0.46390180  0.78050855    -0.49600
C173        C  0.95218256  0.32639607  0.74980819     0.72400
O174        O  0.92344530  0.31232885  0.74999367    -0.45300
C175        C  0.91151584  0.43865808  0.69482510     0.77100
O176        O  0.86186522  0.34267880  0.74980732    -0.56300
O177        O  0.91692866  0.46391373  0.71915639    -0.46400
O178        O  0.85486469  0.42578440  0.75008904    -0.52800
C179        C  0.91180947  0.43864837  0.80486554     0.87300
O180        O  0.95673575  0.37544411  0.74964180    -0.54700
O181        O  0.90304668  0.39147121  0.69852956    -0.57900
In182      In  0.62196304  0.33863195  0.74985284     1.36900
C183        C  0.68432577  0.35369506  0.74996331     0.79700
O184        O  0.62353170  0.34271835  0.80119228    -0.58700
O185        O  0.60975050  0.27027692  0.78050069    -0.49600
C186        C  0.57459173  0.40773481  0.74980151     0.72400
O187        O  0.60332136  0.42184381  0.74998041    -0.44500
C188        C  0.61534117  0.29552151  0.69481657     0.77100
O189        O  0.66491829  0.39160035  0.74979221    -0.56300
O190        O  0.60992693  0.27026696  0.71914946    -0.46400
O191        O  0.67197129  0.30850649  0.75008216    -0.52800
C192        C  0.61505281  0.29552764  0.80485634     0.87300
O193        O  0.57006683  0.35867944  0.74963791    -0.54700
O194        O  0.62378971  0.34271849  0.69851807    -0.57900
In195      In  0.90484314  0.08868690  0.99980367     1.36900
C196        C  0.84246611  0.10359764  0.49969601     0.79700
O197        O  0.90328597  0.09278960  0.94846439    -0.58700
O198        O  0.91711874  0.02036817  0.96915564    -0.49600
C199        C  0.95215643  0.15788000  0.99985365     0.72400
O200        O  0.92341620  0.17193607  0.49967248    -0.44500
C201        C  0.91151287  0.04559711  0.55484129     0.77100
O202        O  0.86183787  0.14154989  0.99986662    -0.56300
O203        O  0.91693229  0.02034572  0.53050947    -0.46400
O204        O  0.85486318  0.05843906  0.49957537    -0.52800
C205        C  0.91180441  0.04561749  0.94480010     0.87300
O206        O  0.95671958  0.10883377  0.00002037    -0.54700
O207        O  0.90303398  0.09278092  0.55113789    -0.57900
In208      In  0.62193634  0.14543692  0.99980416     1.36900
C209        C  0.68430167  0.13040115  0.49969726     0.79700
O210        O  0.62351840  0.14134078  0.94846553    -0.58700
O211        O  0.60971353  0.21377951  0.96914904    -0.49600
C212        C  0.57457222  0.07632796  0.99986022     0.72400
O213        O  0.60330343  0.06222219  0.49967943    -0.44500
C214        C  0.61531698  0.18855226  0.55483933     0.77100
O215        O  0.66490294  0.09248632  0.99987007    -0.56300
O216        O  0.60988875  0.21380023  0.53050654    -0.46400
O217        O  0.67193683  0.17558414  0.49957443    -0.52800
C218        C  0.61502992  0.18852714  0.94479634     0.87300
O219        O  0.57004235  0.12538291  0.00002290    -0.54700
O220        O  0.62377539  0.14135854  0.55113815    -0.57900
In221      In  0.40482148  0.14541636  0.74987012     1.36900
C222        C  0.34245083  0.13043630  0.74997525     0.79700
O223        O  0.40325609  0.14132630  0.80121356    -0.58700
O224        O  0.41706823  0.21375166  0.78052158    -0.49600
C225        C  0.45214197  0.07621742  0.74981397     0.72400
O226        O  0.42340230  0.06216614  0.74999624    -0.44500
C227        C  0.41146793  0.18853658  0.69483133     0.77100
O228        O  0.36184045  0.09250664  0.74980663    -0.56300
O229        O  0.41689689  0.21377322  0.71916598    -0.46400
O230        O  0.35482667  0.17560872  0.75009612    -0.52800
C231        C  0.41175477  0.18850641  0.80487837     0.87300
O232        O  0.45670258  0.12526394  0.74965051    -0.54700
O233        O  0.40299583  0.14135039  0.69853198    -0.57900
In234      In  0.12191661  0.08867046  0.74983703     1.36900
C235        C  0.18428996  0.10360650  0.74994867     0.79700
O236        O  0.12347675  0.09276584  0.80117509    -0.58700
O237        O  0.10964977  0.02034546  0.78048609    -0.49600
C238        C  0.07460119  0.15786923  0.74978525     0.72400
O239        O  0.10334104  0.17192071  0.74996642    -0.44500
C240        C  0.11525838  0.04557528  0.69480271     0.77100
O241        O  0.16490995  0.14154990  0.74977252    -0.56300
O242        O  0.10983615  0.02032595  0.71913570    -0.46400
O243        O  0.17190305  0.05844235  0.75007141    -0.52800
C244        C  0.11496445  0.04559219  0.80484057     0.87300
O245        O  0.07003863  0.10882361  0.74961868    -0.54700
O246        O  0.12373293  0.09275951  0.69850336    -0.57900
In247      In  0.40480669  0.33866229  0.99981120     1.36900
C248        C  0.34243537  0.35365731  0.49969814     0.79700
O249        O  0.40324560  0.34273516  0.94846713    -0.58700
O250        O  0.41705523  0.27031399  0.96916818    -0.49600
C251        C  0.45212776  0.40785396  0.99986212     0.72400
O252        O  0.42338804  0.42191004  0.49968100    -0.44500
C253        C  0.41145458  0.29555405  0.55485349     0.77100
O254        O  0.36182626  0.39158170  0.99986278    -0.56300
O255        O  0.41688443  0.27031190  0.53052066    -0.46400
O256        O  0.35481014  0.30848175  0.49958702    -0.52800
C257        C  0.41174446  0.29555229  0.94480816     0.87300
O258        O  0.45668815  0.35880672  0.00002727    -0.54700
O259        O  0.40297920  0.34273931  0.55114931    -0.57900
In260      In  0.12190437  0.39555102  0.99978701     1.36900
C261        C  0.18427612  0.38057686  0.49968114     0.79700
O262        O  0.12346954  0.39145738  0.94844894    -0.58700
O263        O  0.10964459  0.46388148  0.96913771    -0.49600
C264        C  0.07457726  0.32638177  0.99984130     0.72400
O265        O  0.10331486  0.31231237  0.49965835    -0.44500
C266        C  0.11525178  0.43864880  0.55482163     0.77100
O267        O  0.16488973  0.34264572  0.99985198    -0.56300
O268        O  0.10983443  0.46390258  0.53048882    -0.46400
O269        O  0.17189636  0.42574879  0.49955887    -0.52800
C270        C  0.11495985  0.43863381  0.94478329     0.87300
O271        O  0.07002282  0.37543022  0.00000662    -0.54700
O272        O  0.12371873  0.39145945  0.55112053    -0.57900
C273        C  0.21808718  0.37326624  0.49964003    -0.16300
C274        C  0.24662536  0.36912504  0.49962354     0.07700
C275        C  0.28008715  0.36512528  0.49962768     0.09600
C276        C  0.30862509  0.36097870  0.49965078    -0.17200
C277        C  0.11207303  0.46201003  0.91495636    -0.16300
C278        C  0.11089306  0.48107352  0.88966675     0.07700
C279        C  0.11089356  0.00315443  0.85995714     0.09600
C280        C  0.11207494  0.02221737  0.83466753    -0.17200
C281        C  0.11250054  0.02220155  0.66496325    -0.16300
C282        C  0.11137634  0.00314612  0.63966920     0.07700
C283        C  0.11137491  0.48107797  0.60995571     0.09600
C284        C  0.11249684  0.46202281  0.58466142    -0.17200
C285        C  0.41463059  0.21189039  0.83470600    -0.16300
C286        C  0.41580383  0.23096956  0.85999263     0.07700
C287        C  0.41580128  0.25307552  0.88969777     0.09600
C288        C  0.41462398  0.27215884  0.91498325    -0.17200
C289        C  0.41421471  0.21192683  0.66499097    -0.16300
C290        C  0.41533092  0.23100250  0.63969891     0.07700
C291        C  0.41532714  0.25309780  0.60998810     0.09600
C292        C  0.41420525  0.27217072  0.58469548    -0.17200
C293        C  0.21810175  0.11089529  0.74999668    -0.16300
C294        C  0.24664043  0.11501624  0.75002180     0.07700
C295        C  0.28010251  0.11899329  0.75002896     0.09600
C296        C  0.30864069  0.12312487  0.75001475    -0.17200
C297        C  0.47794543  0.44484468  0.99987125    -0.16300
C298        C  0.50018886  0.47481627  0.99987294     0.07700
C299        C  0.52647758  0.00943125  0.99987305     0.09600
C300        C  0.54873161  0.03938122  0.99987089    -0.17200
C301        C  0.04875485  0.28940440  0.99985228    -0.16300
C302        C  0.02650758  0.25944329  0.99985619     0.07700
C303        C  0.00021930  0.22483158  0.99985952     0.09600
C304        C  0.97797330  0.19486781  0.99986054    -0.17200
C305        C  0.80865226  0.11086983  0.49965289    -0.16300
C306        C  0.78011224  0.11497350  0.49963385     0.07700
C307        C  0.74664906  0.11893503  0.49963433     0.09600
C308        C  0.71811049  0.12306590  0.49965399    -0.17200
C309        C  0.54874775  0.44467895  0.74979374    -0.16300
C310        C  0.52649217  0.47462933  0.74979427     0.07700
C311        C  0.50020289  0.00924735  0.74979742     0.09600
C312        C  0.47795941  0.03922237  0.74980179    -0.17200
C313        C  0.61216635  0.21190842  0.91496783    -0.16300
C314        C  0.61100024  0.23097817  0.88967872     0.07700
C315        C  0.61100650  0.25306869  0.85997065     0.09600
C316        C  0.61218211  0.27214098  0.83468268    -0.17200
C317        C  0.61259929  0.27214128  0.66497666    -0.16300
C318        C  0.61147937  0.25307889  0.63968370     0.07700
C319        C  0.61147235  0.23100084  0.60997186     0.09600
C320        C  0.61258197  0.21193680  0.58467887    -0.17200
C321        C  0.97800624  0.28941694  0.74979493    -0.16300
C322        C  0.00025394  0.25945291  0.74978845     0.07700
C323        C  0.02654078  0.22483389  0.74978210     0.09600
C324        C  0.04878481  0.19486237  0.74977909    -0.17200
C325        C  0.91470314  0.46202372  0.83469117    -0.16300
C326        C  0.91588697  0.48109158  0.85997866     0.07700
C327        C  0.91588610  0.00317975  0.88968569     0.09600
C328        C  0.91470078  0.02224596  0.91497358    -0.17200
C329        C  0.91427763  0.02222465  0.58468228    -0.16300
C330        C  0.91540502  0.00316439  0.60997630     0.07700
C331        C  0.91540490  0.48108756  0.63968921     0.09600
C332        C  0.91427813  0.46202859  0.66498353    -0.17200
C333        C  0.80867013  0.37332081  0.75001641    -0.16300
C334        C  0.78013164  0.36919219  0.75003418     0.07700
C335        C  0.74666998  0.36520050  0.75003127     0.09600
C336        C  0.71813280  0.36104769  0.75000924    -0.17200
In337      In  0.90485449  0.89556937  0.24986372     1.36900
C338        C  0.84248158  0.88061740  0.24997339     0.79700
O339        O  0.90331004  0.89146786  0.30120351    -0.58700
O340        O  0.91710754  0.96390186  0.28050853    -0.49600
C341        C  0.95218252  0.82639606  0.24980826     0.72400
O342        O  0.92344528  0.81232886  0.24999373    -0.45300
C343        C  0.91151584  0.93865801  0.19482510     0.77100
O344        O  0.86186515  0.84267875  0.24980741    -0.56300
O345        O  0.91692867  0.96391366  0.21915640    -0.46400
O346        O  0.85486467  0.92578437  0.25008891    -0.52800
C347        C  0.91180940  0.93864836  0.30486550     0.87300
O348        O  0.95673571  0.87544415  0.24964186    -0.54700
O349        O  0.90304670  0.89147117  0.19852956    -0.57900
In350      In  0.62196306  0.83863209  0.24985290     1.36900
C351        C  0.68432576  0.85369494  0.24996328     0.79700
O352        O  0.62353172  0.84271824  0.30119235    -0.58700
O353        O  0.60975052  0.77027686  0.28050072    -0.49600
C354        C  0.57459173  0.90773471  0.24980158     0.72400
O355        O  0.60332135  0.92184378  0.24998048    -0.44500
C356        C  0.61534119  0.79552146  0.19481657     0.77100
O357        O  0.66491831  0.89160027  0.24979208    -0.56300
O358        O  0.60992692  0.77026706  0.21914948    -0.46400
O359        O  0.67197127  0.80850638  0.25008225    -0.52800
C360        C  0.61505283  0.79552752  0.30485639     0.87300
O361        O  0.57006684  0.85867933  0.24963797    -0.54700
O362        O  0.62378974  0.84271844  0.19851805    -0.57900
In363      In  0.90484315  0.58868682  0.49980372     1.36900
C364        C  0.84246609  0.60359758  0.99969600     0.79700
O365        O  0.90328598  0.59278951  0.44846448    -0.58700
O366        O  0.91711875  0.52036804  0.46915568    -0.49600
C367        C  0.95215643  0.65787998  0.49985374     0.72400
O368        O  0.92341621  0.67193625  0.99967242    -0.44500
C369        C  0.91151288  0.54559720  0.05484133     0.77100
O370        O  0.86183793  0.64154985  0.49986667    -0.56300
O371        O  0.91693227  0.52034584  0.03050950    -0.46400
O372        O  0.85486317  0.55843907  0.99957531    -0.52800
C373        C  0.91180442  0.54561742  0.44480015     0.87300
O374        O  0.95671954  0.60883380  0.50002052    -0.54700
O375        O  0.90303402  0.59278105  0.05113791    -0.57900
In376      In  0.62193635  0.64543707  0.49980420     1.36900
C377        C  0.68430165  0.63040118  0.99969738     0.79700
O378        O  0.62351840  0.64134077  0.44846556    -0.58700
O379        O  0.60971353  0.71377951  0.46914904    -0.49600
C380        C  0.57457225  0.57632796  0.49986017     0.72400
O381        O  0.60330344  0.56222216  0.99967961    -0.44500
C382        C  0.61531690  0.68855232  0.05483931     0.77100
O383        O  0.66490297  0.59248645  0.49987013    -0.56300
O384        O  0.60988868  0.71380023  0.03050652    -0.46400
O385        O  0.67193684  0.67558417  0.99957460    -0.52800
C386        C  0.61502994  0.68852708  0.44479637     0.87300
O387        O  0.57004239  0.62538289  0.50002304    -0.54700
O388        O  0.62377538  0.64135860  0.05113818    -0.57900
In389      In  0.40482133  0.64541624  0.24987014     1.36900
C390        C  0.34245080  0.63043628  0.24997527     0.79700
O391        O  0.40325607  0.64132614  0.30121361    -0.58700
O392        O  0.41706820  0.71375149  0.28052162    -0.49600
C393        C  0.45214194  0.57621745  0.24981399     0.72400
O394        O  0.42340228  0.56216610  0.24999611    -0.44500
C395        C  0.41146787  0.68853649  0.19483126     0.77100
O396        O  0.36184042  0.59250659  0.24980651    -0.56300
O397        O  0.41689689  0.71377306  0.21916595    -0.46400
O398        O  0.35482661  0.67560870  0.25009622    -0.52800
C399        C  0.41175478  0.68850623  0.30487841     0.87300
O400        O  0.45670252  0.62526395  0.24965059    -0.54700
O401        O  0.40299564  0.64135042  0.19853190    -0.57900
In402      In  0.12191662  0.58867062  0.24983692     1.36900
C403        C  0.18428998  0.60360637  0.24994869     0.79700
O404        O  0.12347675  0.59276574  0.30117505    -0.58700
O405        O  0.10964979  0.52034543  0.28048601    -0.49600
C406        C  0.07460118  0.65786922  0.24978527     0.72400
O407        O  0.10334104  0.67192068  0.24996650    -0.44500
C408        C  0.11525840  0.54557543  0.19480267     0.77100
O409        O  0.16491000  0.64154982  0.24977255    -0.56300
O410        O  0.10983617  0.52032614  0.21913571    -0.46400
O411        O  0.17190303  0.55844225  0.25007145    -0.52800
C412        C  0.11496447  0.54559210  0.30484055     0.87300
O413        O  0.07003860  0.60882358  0.24961854    -0.54700
O414        O  0.12373294  0.59275965  0.19850325    -0.57900
In415      In  0.40480669  0.83866246  0.49981109     1.36900
C416        C  0.34243537  0.85365735  0.99969821     0.79700
O417        O  0.40324564  0.84273523  0.44846713    -0.58700
O418        O  0.41705523  0.77031396  0.46916811    -0.49600
C419        C  0.45212776  0.90785399  0.49986216     0.72400
O420        O  0.42338799  0.92191004  0.99968095    -0.44500
C421        C  0.41145459  0.79555401  0.05485353     0.77100
O422        O  0.36182624  0.89158183  0.49986278    -0.56300
O423        O  0.41688447  0.77031192  0.03052068    -0.46400
O424        O  0.35481014  0.80848182  0.99958702    -0.52800
C425        C  0.41174445  0.79555240  0.44480811     0.87300
O426        O  0.45668816  0.85880672  0.50002740    -0.54700
O427        O  0.40297918  0.84273926  0.05114942    -0.57900
In428      In  0.12190437  0.89555119  0.49978702     1.36900
C429        C  0.18427611  0.88057676  0.99968113     0.79700
O430        O  0.12346952  0.89145739  0.44844887    -0.58700
O431        O  0.10964463  0.96388154  0.46913761    -0.49600
C432        C  0.07457728  0.82638178  0.49984129     0.72400
O433        O  0.10331487  0.81231255  0.99965830    -0.44500
C434        C  0.11525178  0.93864867  0.05482169     0.77100
O435        O  0.16488971  0.84264565  0.49985205    -0.56300
O436        O  0.10983444  0.96390251  0.03048889    -0.46400
O437        O  0.17189637  0.92574870  0.99955877    -0.52800
C438        C  0.11495985  0.93863384  0.44478323     0.87300
O439        O  0.07002280  0.87543019  0.50000680    -0.54700
O440        O  0.12371874  0.89145933  0.05112054    -0.57900
C441        C  0.21808716  0.87326610  0.99963997    -0.16300
C442        C  0.24662535  0.86912491  0.99962346     0.07700
C443        C  0.28008714  0.86512516  0.99962767     0.09600
C444        C  0.30862508  0.86097868  0.99965090    -0.17200
C445        C  0.11207305  0.96201009  0.41495629    -0.16300
C446        C  0.11089307  0.98107354  0.38966671     0.07700
C447        C  0.11089357  0.50315430  0.35995707     0.09600
C448        C  0.11207495  0.52221726  0.33466745    -0.17200
C449        C  0.11250054  0.52220158  0.16496326    -0.16300
C450        C  0.11137635  0.50314616  0.13966922     0.07700
C451        C  0.11137492  0.98107789  0.10995575     0.09600
C452        C  0.11249685  0.96202263  0.08466148    -0.17200
C453        C  0.41463061  0.71189022  0.33470601    -0.16300
C454        C  0.41580384  0.73096957  0.35999261     0.07700
C455        C  0.41580129  0.75307575  0.38969769     0.09600
C456        C  0.41462398  0.77215903  0.41498317    -0.17200
C457        C  0.41421474  0.71192674  0.16499092    -0.16300
C458        C  0.41533089  0.73100236  0.13969881     0.07700
C459        C  0.41532700  0.75309766  0.10998805     0.09600
C460        C  0.41420520  0.77217058  0.08469544    -0.17200
C461        C  0.21810176  0.61089513  0.24999656    -0.16300
C462        C  0.24664044  0.61501618  0.25002167     0.07700
C463        C  0.28010251  0.61899339  0.25002898     0.09600
C464        C  0.30864069  0.62312483  0.25001482    -0.17200
C465        C  0.47794544  0.94484463  0.49987118    -0.16300
C466        C  0.50018889  0.97481613  0.49987290     0.07700
C467        C  0.52647755  0.50943142  0.49987308     0.09600
C468        C  0.54873161  0.53938130  0.49987091    -0.17200
C469        C  0.04875489  0.78940435  0.49985221    -0.16300
C470        C  0.02650755  0.75944333  0.49985615     0.07700
C471        C  0.00021932  0.72483153  0.49985944     0.09600
C472        C  0.97797335  0.69486776  0.49986055    -0.17200
C473        C  0.80865224  0.61086985  0.99965296    -0.16300
C474        C  0.78011224  0.61497370  0.99963383     0.07700
C475        C  0.74664905  0.61893522  0.99963431     0.09600
C476        C  0.71811047  0.62306589  0.99965412    -0.17200
C477        C  0.54874772  0.94467883  0.24979380    -0.16300
C478        C  0.52649217  0.97462925  0.24979433     0.07700
C479        C  0.50020279  0.50924721  0.24979749     0.09600
C480        C  0.47795937  0.53922233  0.24980185    -0.17200
C481        C  0.61216636  0.71190842  0.41496786    -0.16300
C482        C  0.61100024  0.73097828  0.38967879     0.07700
C483        C  0.61100651  0.75306863  0.35997072     0.09600
C484        C  0.61218212  0.77214085  0.33468271    -0.17200
C485        C  0.61259925  0.77214112  0.16497663    -0.16300
C486        C  0.61147919  0.75307879  0.13968365     0.07700
C487        C  0.61147217  0.73100087  0.10997181     0.09600
C488        C  0.61258187  0.71193689  0.08467878    -0.17200
C489        C  0.97800622  0.78941694  0.24979494    -0.16300
C490        C  0.00025391  0.75945290  0.24978837     0.07700
C491        C  0.02654084  0.72483400  0.24978212     0.09600
C492        C  0.04878485  0.69486244  0.24977916    -0.17200
C493        C  0.91470310  0.96202358  0.33469117    -0.16300
C494        C  0.91588697  0.98109146  0.35997865     0.07700
C495        C  0.91588611  0.50317971  0.38968572     0.09600
C496        C  0.91470080  0.52224597  0.41497361    -0.17200
C497        C  0.91427757  0.52222469  0.08468230    -0.16300
C498        C  0.91540488  0.50316424  0.10997630     0.07700
C499        C  0.91540491  0.98108765  0.13968922     0.09600
C500        C  0.91427813  0.96202858  0.16498352    -0.17200
C501        C  0.80867007  0.87332078  0.25001628    -0.16300
C502        C  0.78013160  0.86919214  0.25003406     0.07700
C503        C  0.74666994  0.86520061  0.25003124     0.09600
C504        C  0.71813278  0.86104762  0.25000917    -0.17200
In505      In  0.90485443  0.89556936  0.74986369     1.36900
C506        C  0.84248159  0.88061728  0.74997343     0.79700
O507        O  0.90330994  0.89146790  0.80120356    -0.58700
O508        O  0.91710763  0.96390176  0.78050857    -0.49600
C509        C  0.95218255  0.82639611  0.74980819     0.72400
O510        O  0.92344529  0.81232890  0.74999367    -0.45300
C511        C  0.91151584  0.93865800  0.69482509     0.77100
O512        O  0.86186516  0.84267863  0.74980732    -0.56300
O513        O  0.91692877  0.96391362  0.71915640    -0.46400
O514        O  0.85486470  0.92578427  0.75008904    -0.52800
C515        C  0.91180941  0.93864833  0.80486553     0.87300
O516        O  0.95673571  0.87544418  0.74964180    -0.54700
O517        O  0.90304658  0.89147123  0.69852955    -0.57900
In518      In  0.62196311  0.83863211  0.74985285     1.36900
C519        C  0.68432572  0.85369496  0.74996331     0.79700
O520        O  0.62353158  0.84271830  0.80119230    -0.58700
O521        O  0.60975061  0.77027683  0.78050065    -0.49600
C522        C  0.57459170  0.90773472  0.74980151     0.72400
O523        O  0.60332130  0.92184388  0.74998041    -0.44500
C524        C  0.61534111  0.79552152  0.69481657     0.77100
O525        O  0.66491827  0.89160031  0.74979221    -0.56300
O526        O  0.60992679  0.77026712  0.71914950    -0.46400
O527        O  0.67197123  0.80850638  0.75008216    -0.52800
C528        C  0.61505279  0.79552754  0.80485633     0.87300
O529        O  0.57006687  0.85867938  0.74963791    -0.54700
O530        O  0.62378983  0.84271840  0.69851803    -0.57900
In531      In  0.90484305  0.58868683  0.99980367     1.36900
C532        C  0.84246617  0.60359767  0.49969601     0.79700
O533        O  0.90328608  0.59278957  0.94846441    -0.58700
O534        O  0.91711863  0.52036800  0.96915563    -0.49600
C535        C  0.95215644  0.65787994  0.99985365     0.72400
O536        O  0.92341617  0.67193622  0.49967247    -0.44500
C537        C  0.91151281  0.54559717  0.55484128     0.77100
O538        O  0.86183779  0.64154984  0.99986661    -0.56300
O539        O  0.91693215  0.52034577  0.53050947    -0.46400
O540        O  0.85486325  0.55843911  0.49957538    -0.52800
C541        C  0.91180442  0.54561745  0.94480010     0.87300
O542        O  0.95671949  0.60883375  0.00002037    -0.54700
O543        O  0.90303411  0.59278111  0.55113789    -0.57900
In544      In  0.62193629  0.64543707  0.99980416     1.36900
C545        C  0.68430162  0.63040129  0.49969726     0.79700
O546        O  0.62351849  0.64134078  0.94846553    -0.58700
O547        O  0.60971361  0.71377954  0.96914901    -0.49600
C548        C  0.57457225  0.57632796  0.99986022     0.72400
O549        O  0.60330342  0.56222214  0.49967943    -0.44500
C550        C  0.61531685  0.68855235  0.55483932     0.77100
O551        O  0.66490296  0.59248638  0.99987007    -0.56300
O552        O  0.60988862  0.71380025  0.53050653    -0.46400
O553        O  0.67193676  0.67558431  0.49957443    -0.52800
C554        C  0.61503005  0.68852710  0.94479632     0.87300
O555        O  0.57004235  0.62538288  0.00002290    -0.54700
O556        O  0.62377532  0.64135862  0.55113817    -0.57900
In557      In  0.40482141  0.64541626  0.74987011     1.36900
C558        C  0.34245089  0.63043630  0.74997525     0.79700
O559        O  0.40325618  0.64132616  0.80121355    -0.58700
O560        O  0.41706831  0.71375152  0.78052158    -0.49600
C561        C  0.45214193  0.57621743  0.74981397     0.72400
O562        O  0.42340229  0.56216606  0.74999624    -0.44500
C563        C  0.41146798  0.68853649  0.69483132     0.77100
O564        O  0.36184048  0.59250661  0.74980663    -0.56300
O565        O  0.41689700  0.71377311  0.71916600    -0.46400
O566        O  0.35482668  0.67560871  0.75009613    -0.52800
C567        C  0.41175484  0.68850626  0.80487838     0.87300
O568        O  0.45670250  0.62526394  0.74965050    -0.54700
O569        O  0.40299575  0.64135042  0.69853198    -0.57900
In570      In  0.12191668  0.58867061  0.74983703     1.36900
C571        C  0.18428996  0.60360639  0.74994867     0.79700
O572        O  0.12347689  0.59276569  0.80117509    -0.58700
O573        O  0.10964970  0.52034547  0.78048605    -0.49600
C574        C  0.07460123  0.65786924  0.74978530     0.72400
O575        O  0.10334109  0.67192073  0.74996643    -0.44500
C576        C  0.11525833  0.54557548  0.69480270     0.77100
O577        O  0.16490997  0.64154985  0.74977252    -0.56300
O578        O  0.10983625  0.52032608  0.71913572    -0.46400
O579        O  0.17190301  0.55844225  0.75007141    -0.52800
C580        C  0.11496447  0.54559208  0.80484056     0.87300
O581        O  0.07003870  0.60882359  0.74961869    -0.54700
O582        O  0.12373281  0.59275970  0.69850333    -0.57900
In583      In  0.40480674  0.83866245  0.99981120     1.36900
C584        C  0.34243537  0.85365732  0.49969814     0.79700
O585        O  0.40324555  0.84273523  0.94846715    -0.58700
O586        O  0.41705512  0.77031401  0.96916817    -0.49600
C587        C  0.45212770  0.90785400  0.99986216     0.72400
O588        O  0.42338805  0.92191000  0.49968101    -0.44500
C589        C  0.41145451  0.79555400  0.55485347     0.77100
O590        O  0.36182627  0.89158179  0.99986279    -0.56300
O591        O  0.41688434  0.77031193  0.53052061    -0.46400
O592        O  0.35481018  0.80848181  0.49958700    -0.52800
C593        C  0.41174438  0.79555239  0.94480816     0.87300
O594        O  0.45668811  0.85880674  0.00002745    -0.54700
O595        O  0.40297907  0.84273924  0.55114935    -0.57900
In596      In  0.12190430  0.89555120  0.99978700     1.36900
C597        C  0.18427613  0.88057678  0.49968114     0.79700
O598        O  0.12346956  0.89145743  0.94844895    -0.58700
O599        O  0.10964466  0.96388160  0.96913771    -0.49600
C600        C  0.07457726  0.82638177  0.99984125     0.72400
O601        O  0.10331486  0.81231254  0.49965835    -0.44500
C602        C  0.11525179  0.93864868  0.55482164     0.77100
O603        O  0.16488966  0.84264570  0.99985218    -0.56300
O604        O  0.10983436  0.96390248  0.53048885    -0.46400
O605        O  0.17189635  0.92574871  0.49955886    -0.52800
C606        C  0.11495983  0.93863384  0.94478332     0.87300
O607        O  0.07002275  0.87543016  0.00000665    -0.54700
O608        O  0.12371887  0.89145940  0.55112052    -0.57900
C609        C  0.21808716  0.87326617  0.49964003    -0.16300
C610        C  0.24662536  0.86912490  0.49962354     0.07700
C611        C  0.28008716  0.86512512  0.49962768     0.09600
C612        C  0.30862507  0.86097861  0.49965078    -0.17200
C613        C  0.11207293  0.96201005  0.91495640    -0.16300
C614        C  0.11089293  0.98107358  0.88966679     0.07700
C615        C  0.11089363  0.50315434  0.85995711     0.09600
C616        C  0.11207491  0.52221728  0.83466747    -0.17200
C617        C  0.11250042  0.52220166  0.66496325    -0.16300
C618        C  0.11137621  0.50314612  0.63966923     0.07700
C619        C  0.11137498  0.98107788  0.60995570     0.09600
C620        C  0.11249681  0.96202266  0.58466144    -0.17200
C621        C  0.41463053  0.71189027  0.83470602    -0.16300
C622        C  0.41580370  0.73096951  0.85999265     0.07700
C623        C  0.41580122  0.75307569  0.88969773     0.09600
C624        C  0.41462400  0.77215903  0.91498323    -0.17200
C625        C  0.41421484  0.71192676  0.66499097    -0.16300
C626        C  0.41533100  0.73100241  0.63969887     0.07700
C627        C  0.41532712  0.75309766  0.60998805     0.09600
C628        C  0.41420526  0.77217056  0.58469543    -0.17200
C629        C  0.21810177  0.61089513  0.74999668    -0.16300
C630        C  0.24664048  0.61501618  0.75002180     0.07700
C631        C  0.28010256  0.61899338  0.75002896     0.09600
C632        C  0.30864075  0.62312484  0.75001475    -0.17200
C633        C  0.47794538  0.94484460  0.99987130    -0.16300
C634        C  0.50018883  0.97481618  0.99987308     0.07700
C635        C  0.52647758  0.50943137  0.99987301     0.09600
C636        C  0.54873165  0.53938131  0.99987089    -0.17200
C637        C  0.04875487  0.78940433  0.99985228    -0.16300
C638        C  0.02650749  0.75944342  0.99985619     0.07700
C639        C  0.00021928  0.72483158  0.99985952     0.09600
C640        C  0.97797338  0.69486767  0.99986054    -0.17200
C641        C  0.80865231  0.61087002  0.49965289    -0.16300
C642        C  0.78011226  0.61497376  0.49963385     0.07700
C643        C  0.74664904  0.61893530  0.49963433     0.09600
C644        C  0.71811044  0.62306613  0.49965399    -0.17200
C645        C  0.54874767  0.94467882  0.74979374    -0.16300
C646        C  0.52649216  0.97462935  0.74979427     0.07700
C647        C  0.50020285  0.50924723  0.74979742     0.09600
C648        C  0.47795940  0.53922239  0.74980179    -0.17200
C649        C  0.61216647  0.71190844  0.91496783    -0.16300
C650        C  0.61100036  0.73097827  0.88967875     0.07700
C651        C  0.61100663  0.75306862  0.85997066     0.09600
C652        C  0.61218217  0.77214083  0.83468265    -0.17200
C653        C  0.61259916  0.77214116  0.66497668    -0.16300
C654        C  0.61147925  0.75307876  0.63968373     0.07700
C655        C  0.61147223  0.73100080  0.60997187     0.09600
C656        C  0.61258184  0.71193689  0.58467884    -0.17200
C657        C  0.97800621  0.78941698  0.74979493    -0.16300
C658        C  0.00025385  0.75945287  0.74978845     0.07700
C659        C  0.02654079  0.72483390  0.74978215     0.09600
C660        C  0.04878482  0.69486243  0.74977923    -0.17200
C661        C  0.91470303  0.96202360  0.83469119    -0.16300
C662        C  0.91588684  0.98109150  0.85997866     0.07700
C663        C  0.91588616  0.50317975  0.88968570     0.09600
C664        C  0.91470077  0.52224598  0.91497357    -0.17200
C665        C  0.91427749  0.52222463  0.58468229    -0.16300
C666        C  0.91540489  0.50316426  0.60997627     0.07700
C667        C  0.91540497  0.98108772  0.63968923     0.09600
C668        C  0.91427811  0.96202861  0.66498353    -0.17200
C669        C  0.80867007  0.87332075  0.75001641    -0.16300
C670        C  0.78013160  0.86919216  0.75003418     0.07700
C671        C  0.74666991  0.86520061  0.75003127     0.09600
C672        C  0.71813275  0.86104762  0.75000924    -0.17200
loop_ 
_geom_bond_atom_site_label_1 
_geom_bond_atom_site_label_2 
_geom_bond_distance 
_geom_bond_site_symmetry_2 
_ccdc_geom_bond_type 
In1           O3   2.243       .  S
In1           O4   2.248       .  S
In1          O12   2.241       .  S
In1           O6   2.251       .  S
In1           O8   2.252       .  S
In1           O9   2.248       .  S
In1          O10   2.238       .  S
In1          O13   2.243       .  S
C2            O8   1.261       .  A
C2           O10   1.258       .  A
C2          C165   1.434       .  S
O3           C11   1.259       .  A
O4           C11   1.260       .  A
C5           O12   1.258       .  A
C5            O6   1.261       .  A
C5          C153   1.435       .  S
C7            O9   1.260       .  A
C7           O13   1.259       .  A
C7          C164   1.435       .  S
C11         C157   1.435       .  S
In14         O16   2.243       .  S
In14         O17   2.248       .  S
In14         O25   2.242       .  S
In14         O19   2.251       .  S
In14         O21   2.252       .  S
In14         O22   2.248       .  S
In14         O23   2.238       .  S
In14         O26   2.243       .  S
C15          O21   1.261       .  A
C15          O23   1.258       .  A
C15         C168   1.434       .  S
O16          C24   1.259       .  A
O17          C24   1.260       .  A
C18          O25   1.258       .  A
C18          O19   1.261       .  A
C18         C141   1.435       .  S
C20          O22   1.260       .  A
C20          O26   1.259       .  A
C20         C149   1.435       .  S
C24         C148   1.435       .  S
In27         O29   2.243       .  S
In27         O30   2.248       .  S
In27         O38   2.241       .  S
In27         O34   2.252       .  S
In27        O200   2.251       .  S
In27        O203   2.248       .  S
In27        O204   2.238       .  S
In27        O207   2.243       .  S
C28          O36   1.258       .  A
C28         O202   1.261       .  A
C28         C137   1.434       .  S
O29          C37   1.259       .  A
O30          C37   1.260       .  A
C31          O38   1.258       .  A
C31         O200   1.261       .  A
C31         C136   1.435       .  S
O32        In195   2.251       .  S
O32         C199   1.261       .  A
C33          O35   1.260       .  A
C33          O39   1.259       .  A
C33         C161   1.435       .  S
O34         C196   1.261       .  A
O35        In195   2.248   1_554  S
O36        In195   2.238       .  S
C37         C160   1.435       .  S
O39        In195   2.243   1_554  S
In40         O42   2.243       .  S
In40         O43   2.248       .  S
In40         O51   2.242       .  S
In40         O47   2.252       .  S
In40        O213   2.251       .  S
In40        O216   2.248       .  S
In40        O217   2.238       .  S
In40        O220   2.243       .  S
C41          O49   1.258       .  A
C41         O215   1.261       .  A
C41         C140   1.434       .  S
O42          C50   1.259       .  A
O43          C50   1.260       .  A
C44          O51   1.258       .  A
C44         O213   1.261       .  A
C44         C132   1.435       .  S
O45        In208   2.251       .  S
O45         C212   1.261       .  A
C46          O48   1.260       .  A
C46          O52   1.259       .  A
C46         C152   1.435       .  S
O47         C209   1.261       .  A
O48        In208   2.248   1_554  S
O49        In208   2.238       .  S
C50         C145   1.435       .  S
O52        In208   2.243   1_554  S
In53         O55   2.243       .  S
In53         O56   2.249       .  S
In53         O64   2.242       .  S
In53         O58   2.251       .  S
In53         O60   2.252       .  S
In53         O61   2.249       .  S
In53         O62   2.238       .  S
In53         O65   2.243       .  S
C54          O60   1.261       .  A
C54          O62   1.258       .  A
C54         C128   1.434       .  S
O55          C63   1.259       .  A
O56          C63   1.260       .  A
C57          O64   1.258       .  A
C57          O58   1.260       .  A
C57         C144   1.435       .  S
C59          O61   1.260       .  A
C59          O65   1.259       .  A
C59         C121   1.435       .  S
C63         C117   1.435       .  S
In66         O68   2.243       .  S
In66         O69   2.248       .  S
In66         O77   2.241       .  S
In66         O71   2.251       .  S
In66         O73   2.252       .  S
In66         O74   2.248       .  S
In66         O75   2.238       .  S
In66         O78   2.243       .  S
C67          O73   1.261       .  A
C67          O75   1.258       .  A
C67         C125   1.434       .  S
O68          C76   1.259       .  A
O69          C76   1.260       .  A
C70          O77   1.258       .  A
C70          O71   1.261       .  A
C70         C156   1.435       .  S
C72          O74   1.260       .  A
C72          O78   1.259       .  A
C72         C113   1.435       .  S
C76         C112   1.435       .  S
In79         O81   2.243       .  S
In79         O82   2.249       .  S
In79         O90   2.242       .  S
In79         O86   2.252       .  S
In79        O252   2.251       .  S
In79        O255   2.249       .  S
In79        O256   2.238       .  S
In79        O259   2.243       .  S
C80          O88   1.258       .  A
C80         O254   1.261       .  A
C80         C108   1.434       .  S
O81          C89   1.259       .  A
O82          C89   1.260       .  A
C83          O90   1.258       .  A
C83         O252   1.260       .  A
C83         C129   1.435       .  S
O84        In247   2.251       .  S
O84         C251   1.260       .  A
C85          O87   1.260       .  A
C85          O91   1.259       .  A
C85         C124   1.435       .  S
O86         C248   1.261       .  A
O87        In247   2.249   1_554  S
O88        In247   2.238       .  S
C89         C120   1.435       .  S
O91        In247   2.243   1_554  S
In92         O94   2.243       .  S
In92         O95   2.248       .  S
In92        O103   2.241       .  S
In92         O99   2.252       .  S
In92        O265   2.251       .  S
In92        O268   2.248       .  S
In92        O269   2.238       .  S
In92        O272   2.243       .  S
C93         O101   1.258       .  A
C93         O267   1.261       .  A
C93         C105   1.434       .  S
O94         C102   1.259       .  A
O95         C102   1.260       .  A
C96         O103   1.258       .  A
C96         O265   1.261       .  A
C96         C133   1.435       .  S
O97        In260   2.251       .  S
O97         C264   1.261       .  A
C98         O100   1.260       .  A
C98         O104   1.259       .  A
C98         C116   1.435       .  S
O99         C261   1.261       .  A
O100       In260   2.248   1_554  S
O101       In260   2.238       .  S
C102        C109   1.435       .  S
O104       In260   2.243   1_554  S
C105        C106   1.205       .  T
C106        C107   1.411       .  S
C107        C108   1.205       .  T
C109        C110   1.205       .  T
C110        C447   1.412       .  S
C111        C112   1.205       .  T
C111        C446   1.412   1_545  S
C113        C114   1.205       .  T
C114        C451   1.412   1_545  S
C115        C116   1.205       .  T
C115        C450   1.412       .  S
C117        C118   1.205       .  T
C118        C119   1.412       .  S
C119        C120   1.205       .  T
C121        C122   1.205       .  T
C122        C123   1.412       .  S
C123        C124   1.205       .  T
C125        C126   1.205       .  T
C126        C127   1.411       .  S
C127        C128   1.205       .  T
C129        C130   1.206       .  T
C130        C467   1.412       .  S
C131        C132   1.206       .  T
C131        C466   1.412   1_545  S
C133        C134   1.206       .  T
C134        C135   1.412       .  S
C135        C136   1.206   1_455  T
C137        C138   1.205       .  T
C138        C139   1.411       .  S
C139        C140   1.205       .  T
C141        C142   1.206       .  T
C142        C479   1.412       .  S
C143        C144   1.206       .  T
C143        C478   1.412   1_545  S
C145        C146   1.205       .  T
C146        C147   1.412       .  S
C147        C148   1.205       .  T
C149        C150   1.205       .  T
C150        C151   1.412       .  S
C151        C152   1.205       .  T
C153        C154   1.206   1_655  T
C154        C155   1.412       .  S
C155        C156   1.206       .  T
C157        C158   1.205       .  T
C158        C495   1.412       .  S
C159        C160   1.205       .  T
C159        C494   1.412   1_545  S
C161        C162   1.205       .  T
C162        C499   1.412   1_545  S
C163        C164   1.205       .  T
C163        C498   1.412       .  S
C165        C166   1.205       .  T
C166        C167   1.411       .  S
C167        C168   1.205       .  T
In169       O171   2.243       .  S
In169       O172   2.248       .  S
In169       O180   2.241       .  S
In169       O174   2.251       .  S
In169       O176   2.252       .  S
In169       O177   2.248       .  S
In169       O178   2.238       .  S
In169       O181   2.243       .  S
C170        O176   1.261       .  A
C170        O178   1.258       .  A
C170        C333   1.434       .  S
O171        C179   1.259       .  A
O172        C179   1.260       .  A
C173        O180   1.258       .  A
C173        O174   1.261       .  A
C173        C321   1.435       .  S
C175        O177   1.260       .  A
C175        O181   1.259       .  A
C175        C332   1.435       .  S
C179        C325   1.435       .  S
In182       O184   2.243       .  S
In182       O185   2.248       .  S
In182       O193   2.242       .  S
In182       O187   2.251       .  S
In182       O189   2.252       .  S
In182       O190   2.248       .  S
In182       O191   2.238       .  S
In182       O194   2.243       .  S
C183        O189   1.261       .  A
C183        O191   1.258       .  A
C183        C336   1.434       .  S
O184        C192   1.259       .  A
O185        C192   1.260       .  A
C186        O193   1.258       .  A
C186        O187   1.261       .  A
C186        C309   1.435       .  S
C188        O190   1.260       .  A
C188        O194   1.259       .  A
C188        C317   1.435       .  S
C192        C316   1.435       .  S
In195       O197   2.243       .  S
In195       O198   2.248       .  S
In195       O206   2.241   1_556  S
In195       O202   2.252       .  S
C196        O204   1.258       .  A
C196        C305   1.434       .  S
O197        C205   1.259       .  A
O198        C205   1.260       .  A
C199        O206   1.258   1_556  A
C199        C304   1.435       .  S
C201        O203   1.260       .  A
C201        O207   1.259       .  A
C201        C329   1.435       .  S
C205        C328   1.435       .  S
In208       O210   2.243       .  S
In208       O211   2.248       .  S
In208       O219   2.242   1_556  S
In208       O215   2.252       .  S
C209        O217   1.258       .  A
C209        C308   1.434       .  S
O210        C218   1.259       .  A
O211        C218   1.260       .  A
C212        O219   1.258   1_556  A
C212        C300   1.435       .  S
C214        O216   1.260       .  A
C214        O220   1.259       .  A
C214        C320   1.435       .  S
C218        C313   1.435       .  S
In221       O223   2.243       .  S
In221       O224   2.249       .  S
In221       O232   2.242       .  S
In221       O226   2.251       .  S
In221       O228   2.252       .  S
In221       O229   2.249       .  S
In221       O230   2.238       .  S
In221       O233   2.243       .  S
C222        O228   1.261       .  A
C222        O230   1.258       .  A
C222        C296   1.434       .  S
O223        C231   1.259       .  A
O224        C231   1.260       .  A
C225        O232   1.258       .  A
C225        O226   1.260       .  A
C225        C312   1.435       .  S
C227        O229   1.260       .  A
C227        O233   1.259       .  A
C227        C289   1.435       .  S
C231        C285   1.435       .  S
In234       O236   2.243       .  S
In234       O237   2.248       .  S
In234       O245   2.241       .  S
In234       O239   2.251       .  S
In234       O241   2.252       .  S
In234       O242   2.248       .  S
In234       O243   2.238       .  S
In234       O246   2.243       .  S
C235        O241   1.261       .  A
C235        O243   1.258       .  A
C235        C293   1.434       .  S
O236        C244   1.259       .  A
O237        C244   1.260       .  A
C238        O245   1.258       .  A
C238        O239   1.261       .  A
C238        C324   1.435       .  S
C240        O242   1.260       .  A
C240        O246   1.259       .  A
C240        C281   1.435       .  S
C244        C280   1.435       .  S
In247       O249   2.243       .  S
In247       O250   2.249       .  S
In247       O258   2.242   1_556  S
In247       O254   2.252       .  S
C248        O256   1.258       .  A
C248        C276   1.434       .  S
O249        C257   1.259       .  A
O250        C257   1.260       .  A
C251        O258   1.258   1_556  A
C251        C297   1.435       .  S
C253        O255   1.260       .  A
C253        O259   1.259       .  A
C253        C292   1.435       .  S
C257        C288   1.435       .  S
In260       O262   2.243       .  S
In260       O263   2.248       .  S
In260       O271   2.241   1_556  S
In260       O267   2.252       .  S
C261        O269   1.258       .  A
C261        C273   1.434       .  S
O262        C270   1.259       .  A
O263        C270   1.260       .  A
C264        O271   1.258   1_556  A
C264        C301   1.435       .  S
C266        O268   1.260       .  A
C266        O272   1.259       .  A
C266        C284   1.435       .  S
C270        C277   1.435       .  S
C273        C274   1.205       .  T
C274        C275   1.411       .  S
C275        C276   1.205       .  T
C277        C278   1.205       .  T
C278        C615   1.412       .  S
C279        C280   1.205       .  T
C279        C614   1.412   1_545  S
C281        C282   1.205       .  T
C282        C619   1.412   1_545  S
C283        C284   1.205       .  T
C283        C618   1.412       .  S
C285        C286   1.205       .  T
C286        C287   1.412       .  S
C287        C288   1.205       .  T
C289        C290   1.205       .  T
C290        C291   1.412       .  S
C291        C292   1.205       .  T
C293        C294   1.205       .  T
C294        C295   1.411       .  S
C295        C296   1.205       .  T
C297        C298   1.206       .  T
C298        C635   1.412       .  S
C299        C300   1.206       .  T
C299        C634   1.412   1_545  S
C301        C302   1.206       .  T
C302        C303   1.412       .  S
C303        C304   1.206   1_455  T
C305        C306   1.205       .  T
C306        C307   1.411       .  S
C307        C308   1.205       .  T
C309        C310   1.206       .  T
C310        C647   1.412       .  S
C311        C312   1.206       .  T
C311        C646   1.412   1_545  S
C313        C314   1.205       .  T
C314        C315   1.412       .  S
C315        C316   1.205       .  T
C317        C318   1.205       .  T
C318        C319   1.412       .  S
C319        C320   1.205       .  T
C321        C322   1.206   1_655  T
C322        C323   1.412       .  S
C323        C324   1.206       .  T
C325        C326   1.205       .  T
C326        C663   1.412       .  S
C327        C328   1.205       .  T
C327        C662   1.412   1_545  S
C329        C330   1.205       .  T
C330        C667   1.412   1_545  S
C331        C332   1.205       .  T
C331        C666   1.412       .  S
C333        C334   1.205       .  T
C334        C335   1.411       .  S
C335        C336   1.205       .  T
In337       O339   2.243       .  S
In337       O340   2.248       .  S
In337       O348   2.241       .  S
In337       O342   2.251       .  S
In337       O344   2.252       .  S
In337       O345   2.248       .  S
In337       O346   2.238       .  S
In337       O349   2.243       .  S
C338        O344   1.261       .  A
C338        O346   1.258       .  A
C338        C501   1.434       .  S
O339        C347   1.259       .  A
O340        C347   1.260       .  A
C341        O348   1.258       .  A
C341        O342   1.261       .  A
C341        C489   1.435       .  S
C343        O345   1.260       .  A
C343        O349   1.259       .  A
C343        C500   1.435       .  S
C347        C493   1.435       .  S
In350       O352   2.243       .  S
In350       O353   2.248       .  S
In350       O361   2.242       .  S
In350       O355   2.251       .  S
In350       O357   2.252       .  S
In350       O358   2.248       .  S
In350       O359   2.238       .  S
In350       O362   2.243       .  S
C351        O357   1.261       .  A
C351        O359   1.258       .  A
C351        C504   1.434       .  S
O352        C360   1.259       .  A
O353        C360   1.260       .  A
C354        O361   1.258       .  A
C354        O355   1.261       .  A
C354        C477   1.435       .  S
C356        O358   1.260       .  A
C356        O362   1.259       .  A
C356        C485   1.435       .  S
C360        C484   1.435       .  S
In363       O365   2.243       .  S
In363       O366   2.248       .  S
In363       O374   2.241       .  S
In363       O536   2.251       .  S
In363       O370   2.252       .  S
In363       O539   2.248       .  S
In363       O540   2.238       .  S
In363       O543   2.243       .  S
C364        O538   1.261       .  A
C364        O372   1.258       .  A
C364        C473   1.434       .  S
O365        C373   1.259       .  A
O366        C373   1.260       .  A
C367        O374   1.258       .  A
C367        O536   1.261       .  A
C367        C472   1.435       .  S
O368       In531   2.251       .  S
O368        C535   1.261       .  A
C369        O371   1.260       .  A
C369        O375   1.259       .  A
C369        C497   1.435       .  S
O370        C532   1.261       .  A
O371       In531   2.248   1_554  S
O372       In531   2.238       .  S
C373        C496   1.435       .  S
O375       In531   2.243   1_554  S
In376       O378   2.243       .  S
In376       O379   2.248       .  S
In376       O387   2.242       .  S
In376       O549   2.251       .  S
In376       O383   2.252       .  S
In376       O552   2.248       .  S
In376       O553   2.238       .  S
In376       O556   2.243       .  S
C377        O551   1.261       .  A
C377        O385   1.258       .  A
C377        C476   1.434       .  S
O378        C386   1.259       .  A
O379        C386   1.260       .  A
C380        O387   1.258       .  A
C380        O549   1.261       .  A
C380        C468   1.435       .  S
O381       In544   2.251       .  S
O381        C548   1.261       .  A
C382        O384   1.260       .  A
C382        O388   1.259       .  A
C382        C488   1.435       .  S
O383        C545   1.261       .  A
O384       In544   2.248   1_554  S
O385       In544   2.238       .  S
C386        C481   1.435       .  S
O388       In544   2.243   1_554  S
In389       O391   2.243       .  S
In389       O392   2.249       .  S
In389       O400   2.242       .  S
In389       O394   2.251       .  S
In389       O396   2.252       .  S
In389       O397   2.249       .  S
In389       O398   2.238       .  S
In389       O401   2.243       .  S
C390        O396   1.261       .  A
C390        O398   1.258       .  A
C390        C464   1.434       .  S
O391        C399   1.259       .  A
O392        C399   1.260       .  A
C393        O400   1.258       .  A
C393        O394   1.260       .  A
C393        C480   1.435       .  S
C395        O397   1.260       .  A
C395        O401   1.259       .  A
C395        C457   1.435       .  S
C399        C453   1.435       .  S
In402       O404   2.243       .  S
In402       O405   2.248       .  S
In402       O413   2.241       .  S
In402       O407   2.251       .  S
In402       O409   2.252       .  S
In402       O410   2.248       .  S
In402       O411   2.238       .  S
In402       O414   2.243       .  S
C403        O409   1.261       .  A
C403        O411   1.258       .  A
C403        C461   1.434       .  S
O404        C412   1.259       .  A
O405        C412   1.260       .  A
C406        O413   1.258       .  A
C406        O407   1.261       .  A
C406        C492   1.435       .  S
C408        O410   1.260       .  A
C408        O414   1.259       .  A
C408        C449   1.435       .  S
C412        C448   1.435       .  S
In415       O417   2.243       .  S
In415       O418   2.249       .  S
In415       O426   2.242       .  S
In415       O588   2.251       .  S
In415       O422   2.252       .  S
In415       O591   2.249       .  S
In415       O592   2.238       .  S
In415       O595   2.243       .  S
C416        O590   1.261       .  A
C416        O424   1.258       .  A
C416        C444   1.434       .  S
O417        C425   1.259       .  A
O418        C425   1.260       .  A
C419        O426   1.258       .  A
C419        O588   1.260       .  A
C419        C465   1.435       .  S
O420       In583   2.251       .  S
O420        C587   1.260       .  A
C421        O423   1.260       .  A
C421        O427   1.259       .  A
C421        C460   1.435       .  S
O422        C584   1.261       .  A
O423       In583   2.249   1_554  S
O424       In583   2.238       .  S
C425        C456   1.435       .  S
O427       In583   2.243   1_554  S
In428       O430   2.243       .  S
In428       O431   2.248       .  S
In428       O439   2.241       .  S
In428       O601   2.251       .  S
In428       O435   2.252       .  S
In428       O604   2.248       .  S
In428       O605   2.238       .  S
In428       O608   2.243       .  S
C429        O603   1.261       .  A
C429        O437   1.258       .  A
C429        C441   1.434       .  S
O430        C438   1.259       .  A
O431        C438   1.260       .  A
C432        O439   1.258       .  A
C432        O601   1.261       .  A
C432        C469   1.435       .  S
O433       In596   2.251       .  S
O433        C600   1.261       .  A
C434        O436   1.260       .  A
C434        O440   1.259       .  A
C434        C452   1.435       .  S
O435        C597   1.261       .  A
O436       In596   2.248   1_554  S
O437       In596   2.238       .  S
C438        C445   1.435       .  S
O440       In596   2.243   1_554  S
C441        C442   1.205       .  T
C442        C443   1.411       .  S
C443        C444   1.205       .  T
C445        C446   1.205       .  T
C447        C448   1.205       .  T
C449        C450   1.205       .  T
C451        C452   1.205       .  T
C453        C454   1.205       .  T
C454        C455   1.412       .  S
C455        C456   1.205       .  T
C457        C458   1.205       .  T
C458        C459   1.412       .  S
C459        C460   1.205       .  T
C461        C462   1.205       .  T
C462        C463   1.411       .  S
C463        C464   1.205       .  T
C465        C466   1.206       .  T
C467        C468   1.206       .  T
C469        C470   1.206       .  T
C470        C471   1.412       .  S
C471        C472   1.206   1_455  T
C473        C474   1.205       .  T
C474        C475   1.411       .  S
C475        C476   1.205       .  T
C477        C478   1.206       .  T
C479        C480   1.206       .  T
C481        C482   1.205       .  T
C482        C483   1.412       .  S
C483        C484   1.205       .  T
C485        C486   1.205       .  T
C486        C487   1.412       .  S
C487        C488   1.205       .  T
C489        C490   1.206   1_655  T
C490        C491   1.412       .  S
C491        C492   1.206       .  T
C493        C494   1.205       .  T
C495        C496   1.205       .  T
C497        C498   1.205       .  T
C499        C500   1.205       .  T
C501        C502   1.205       .  T
C502        C503   1.411       .  S
C503        C504   1.205       .  T
In505       O507   2.243       .  S
In505       O508   2.248       .  S
In505       O516   2.241       .  S
In505       O510   2.251       .  S
In505       O512   2.252       .  S
In505       O513   2.248       .  S
In505       O514   2.238       .  S
In505       O517   2.243       .  S
C506        O512   1.261       .  A
C506        O514   1.258       .  A
C506        C669   1.434       .  S
O507        C515   1.259       .  A
O508        C515   1.260       .  A
C509        O516   1.258       .  A
C509        O510   1.261       .  A
C509        C657   1.435       .  S
C511        O513   1.260       .  A
C511        O517   1.259       .  A
C511        C668   1.435       .  S
C515        C661   1.435       .  S
In518       O520   2.243       .  S
In518       O521   2.248       .  S
In518       O529   2.242       .  S
In518       O523   2.251       .  S
In518       O525   2.252       .  S
In518       O526   2.248       .  S
In518       O527   2.238       .  S
In518       O530   2.243       .  S
C519        O525   1.261       .  A
C519        O527   1.258       .  A
C519        C672   1.434       .  S
O520        C528   1.259       .  A
O521        C528   1.260       .  A
C522        O529   1.258       .  A
C522        O523   1.261       .  A
C522        C645   1.435       .  S
C524        O526   1.260       .  A
C524        O530   1.259       .  A
C524        C653   1.435       .  S
C528        C652   1.435       .  S
In531       O533   2.243       .  S
In531       O534   2.248       .  S
In531       O542   2.241   1_556  S
In531       O538   2.252       .  S
C532        O540   1.258       .  A
C532        C641   1.434       .  S
O533        C541   1.259       .  A
O534        C541   1.260       .  A
C535        O542   1.258   1_556  A
C535        C640   1.435       .  S
C537        O539   1.260       .  A
C537        O543   1.259       .  A
C537        C665   1.435       .  S
C541        C664   1.435       .  S
In544       O546   2.243       .  S
In544       O547   2.248       .  S
In544       O555   2.242   1_556  S
In544       O551   2.252       .  S
C545        O553   1.258       .  A
C545        C644   1.434       .  S
O546        C554   1.259       .  A
O547        C554   1.260       .  A
C548        O555   1.258   1_556  A
C548        C636   1.435       .  S
C550        O552   1.260       .  A
C550        O556   1.259       .  A
C550        C656   1.435       .  S
C554        C649   1.435       .  S
In557       O559   2.243       .  S
In557       O560   2.249       .  S
In557       O568   2.242       .  S
In557       O562   2.251       .  S
In557       O564   2.252       .  S
In557       O565   2.249       .  S
In557       O566   2.238       .  S
In557       O569   2.243       .  S
C558        O564   1.261       .  A
C558        O566   1.258       .  A
C558        C632   1.434       .  S
O559        C567   1.259       .  A
O560        C567   1.260       .  A
C561        O568   1.258       .  A
C561        O562   1.260       .  A
C561        C648   1.435       .  S
C563        O565   1.260       .  A
C563        O569   1.259       .  A
C563        C625   1.435       .  S
C567        C621   1.435       .  S
In570       O572   2.243       .  S
In570       O573   2.248       .  S
In570       O581   2.241       .  S
In570       O575   2.251       .  S
In570       O577   2.252       .  S
In570       O578   2.248       .  S
In570       O579   2.238       .  S
In570       O582   2.243       .  S
C571        O577   1.261       .  A
C571        O579   1.258       .  A
C571        C629   1.434       .  S
O572        C580   1.259       .  A
O573        C580   1.260       .  A
C574        O581   1.258       .  A
C574        O575   1.261       .  A
C574        C660   1.435       .  S
C576        O578   1.260       .  A
C576        O582   1.259       .  A
C576        C617   1.435       .  S
C580        C616   1.435       .  S
In583       O585   2.243       .  S
In583       O586   2.249       .  S
In583       O594   2.242   1_556  S
In583       O590   2.252       .  S
C584        O592   1.258       .  A
C584        C612   1.434       .  S
O585        C593   1.259       .  A
O586        C593   1.260       .  A
C587        O594   1.258   1_556  A
C587        C633   1.435       .  S
C589        O591   1.260       .  A
C589        O595   1.259       .  A
C589        C628   1.435       .  S
C593        C624   1.435       .  S
In596       O598   2.243       .  S
In596       O599   2.248       .  S
In596       O607   2.241   1_556  S
In596       O603   2.252       .  S
C597        O605   1.258       .  A
C597        C609   1.434       .  S
O598        C606   1.259       .  A
O599        C606   1.260       .  A
C600        O607   1.258   1_556  A
C600        C637   1.435       .  S
C602        O604   1.260       .  A
C602        O608   1.259       .  A
C602        C620   1.435       .  S
C606        C613   1.435       .  S
C609        C610   1.205       .  T
C610        C611   1.411       .  S
C611        C612   1.205       .  T
C613        C614   1.205       .  T
C615        C616   1.205       .  T
C617        C618   1.205       .  T
C619        C620   1.205       .  T
C621        C622   1.205       .  T
C622        C623   1.412       .  S
C623        C624   1.205       .  T
C625        C626   1.205       .  T
C626        C627   1.412       .  S
C627        C628   1.205       .  T
C629        C630   1.205       .  T
C630        C631   1.411       .  S
C631        C632   1.205       .  T
C633        C634   1.206       .  T
C635        C636   1.206       .  T
C637        C638   1.206       .  T
C638        C639   1.412       .  S
C639        C640   1.206   1_455  T
C641        C642   1.205       .  T
C642        C643   1.411       .  S
C643        C644   1.205       .  T
C645        C646   1.206       .  T
C647        C648   1.206       .  T
C649        C650   1.205       .  T
C650        C651   1.412       .  S
C651        C652   1.205       .  T
C653        C654   1.205       .  T
C654        C655   1.412       .  S
C655        C656   1.205       .  T
C657        C658   1.206   1_655  T
C658        C659   1.412       .  S
C659        C660   1.206       .  T
C661        C662   1.205       .  T
C663        C664   1.205       .  T
C665        C666   1.205       .  T
C667        C668   1.205       .  T
C669        C670   1.205       .  T
C670        C671   1.411       .  S
C671        C672   1.205       .  T
