geometry optimzed in LAMMPS
_audit_creation_date              2020-11-30 
_audit_creation_method            'lammps2cif' 
_symmetry_space_group_name_H-M    'P1' 
_symmetry_Int_Tables_number       1 
_symmetry_cell_setting            triclinic 
loop_ 
_symmetry_equiv_pos_as_xyz 
  x,y,z 
_cell_length_a                    42.97857036 
_cell_length_b                    42.688755196125214 
_cell_length_c                    26.240051696748765 
_cell_angle_alpha                 89.30859475253799 
_cell_angle_beta                  89.45747689044278 
_cell_angle_gamma                 90.09457550425283 
loop_ 
_atom_site_label 
_atom_site_type_symbol 
_atom_site_fract_x 
_atom_site_fract_y 
_atom_site_fract_z 
_atom_site_charge 
O1          O  0.20378739  0.17665385  0.09892207    -0.73100
O2          O  0.22796332  0.20958023  0.15381096    -0.52000
C3          C  0.20956100  0.18690607  0.14345838     0.80700
O4          O  0.32108677  0.18883565  0.41464347    -0.57700
O5          O  0.28950527  0.21234183  0.35616785    -0.50700
C6          C  0.31202103  0.19440584  0.36928607     0.72700
O7          O  0.32446373  0.19294066  0.08494293    -0.72200
O8          O  0.29481870  0.21702415  0.14571189    -0.52800
C9          C  0.31655482  0.19882568  0.13095522     0.78700
O10         O  0.19438857  0.18056360  0.42970944    -0.57400
O11         O  0.22073311  0.20517445  0.36452302    -0.50500
C12         C  0.19999650  0.18667247  0.38268999     0.75300
Zr13       Zr  0.21843616  0.18894178  0.01195501     2.54700
O14         O  0.23682083  0.13571414  0.02477751    -0.77900
O15         O  0.16791365  0.16404357  0.51704375    -0.91300
Zr16       Zr  0.30860310  0.20676635  0.99996633     2.64700
O17         O  0.32870985  0.15344880  0.00012617    -0.96600
O18         O  0.36066570  0.22440718  0.48046548    -0.78400
O19         O  0.26526185  0.19786034  0.05510200    -0.81700
O20         O  0.26122933  0.19654021  0.45486709    -2.16400
O21         O  0.18377178  0.29485892  0.41862280    -0.65100
O22         O  0.21471063  0.27227617  0.35814243    -0.49700
C23         C  0.19217653  0.28976499  0.37260364     0.73700
O24         O  0.30608694  0.31640657  0.07653644    -0.58000
O25         O  0.28420657  0.28668395  0.14037204    -0.50000
C26         C  0.30069950  0.30953480  0.12325405     0.75500
O27         O  0.30682951  0.30897533  0.40645145    -0.69400
O28         O  0.28090629  0.27803902  0.35060734    -0.48100
C29         C  0.29992522  0.29991702  0.36165466     0.76800
O30         O  0.18933910  0.29813108  0.08746381    -0.64700
O31         O  0.21987651  0.27450193  0.14742541    -0.51900
C32         C  0.19797094  0.29270455  0.13327213     0.75200
Zr33       Zr  0.20187084  0.28183699  0.50269969     2.77500
O34         O  0.18013345  0.33240563  0.00021315    -0.95500
O35         O  0.14907008  0.26179091  0.51121138    -0.76300
Zr36       Zr  0.29239105  0.29801625  0.49386859     2.70100
O37         O  0.27094696  0.35035561  0.49203293    -0.77600
O38         O  0.34436669  0.31538283  0.99248693    -0.96600
Zr39       Zr  0.25673412  0.24536567  0.09892943     2.21500
Zr40       Zr  0.25265244  0.24254779  0.40508207     2.11100
O41         O  0.24584764  0.29020615  0.44935278    -2.45300
O42         O  0.24655944  0.29046569  0.04835267    -0.77400
O43         O  0.20784810  0.23501914  0.45748302    -0.69600
O44         O  0.30204414  0.25303403  0.04728365    -2.30500
O45         O  0.20941924  0.23558189  0.05655433    -2.26700
O46         O  0.30011981  0.25165841  0.44712354    -0.71300
H47         H  0.26293323  0.17819863  0.43388272     0.80700
H48         H  0.32028962  0.25672133  0.06758526     0.81800
H49         H  0.24271406  0.30774527  0.42642714     0.84000
H50         H  0.19207062  0.23346030  0.07999421     0.81600
H51         H  0.36316992  0.23234030  0.95324189     0.44600
H52         H  0.35598774  0.30784043  0.46502213     0.43600
H53         H  0.27007414  0.35636583  0.02792571     0.43300
H54         H  0.19631316  0.34583219  0.47127849     0.41200
H55         H  0.14098378  0.27073835  0.54334241     0.44400
H56         H  0.15390569  0.18828948  0.03939878     0.39100
H57         H  0.24104666  0.13365294  0.06167823     0.45300
H58         H  0.34466058  0.15145715  0.51387735     0.41700
H59         H  0.16286608  0.33544394  0.48894504     0.46600
H60         H  0.16314347  0.15316447  0.03143915     0.45300
H61         H  0.31671330  0.14226199  0.02713525     0.45400
H62         H  0.34145049  0.34129586  0.46987610     0.45800
O63         O  0.19995310  0.43382650  0.09553830    -0.73100
O64         O  0.22953843  0.46000945  0.15325592    -0.52000
C65         C  0.20756858  0.44085585  0.14168028     0.80700
O66         O  0.32225089  0.45002588  0.40775781    -0.57700
O67         O  0.28799686  0.46994400  0.34941789    -0.50700
C68         C  0.31347550  0.45581169  0.36168430     0.72700
O69         O  0.33256240  0.44941053  0.07820275    -0.72200
O70         O  0.30280669  0.46775764  0.14388065    -0.52800
C71         C  0.32727911  0.45392776  0.12571464     0.78700
O72         O  0.19272241  0.43184576  0.42586974    -0.57400
O73         O  0.21240871  0.45920995  0.35740506    -0.50500
C74         C  0.19467045  0.43788113  0.37760242     0.75300
Zr75       Zr  0.21649865  0.44628081  0.00661356     2.54700
O76         O  0.22045446  0.38963815  0.01076775    -0.77900
O77         O  0.15680581  0.43998109  0.50999699    -0.91300
Zr78       Zr  0.30695567  0.45784318  0.99738858     2.64700
O79         O  0.31078322  0.40105770  0.99957679    -0.96300
O80         O  0.35979570  0.46746264  0.49151129    -0.78400
O81         O  0.26367758  0.45021349  0.05300186    -0.81700
O82         O  0.25572405  0.45229543  0.45054378    -2.16400
O83         O  0.18621500  0.03692214  0.40407553    -0.65100
O84         O  0.21632757  0.01086476  0.34626884    -0.49700
C85         C  0.19293597  0.02848907  0.35824618     0.73700
O86         O  0.31286398  0.06506451  0.07756479    -0.58000
O87         O  0.28783929  0.03955878  0.14307197    -0.50000
C88         C  0.30846294  0.05891236  0.12527093     0.75500
O89         O  0.31837398  0.04547228  0.39597318    -0.69400
O90         O  0.28867255  0.01709632  0.34155025    -0.48100
C91         C  0.31093251  0.03640463  0.35103544     0.76800
O92         O  0.18121910  0.05371426  0.07322665    -0.64700
O93         O  0.21048645  0.03620481  0.14005512    -0.51900
C94         C  0.18655750  0.05051975  0.12113156     0.75200
Zr95       Zr  0.20648204  0.03226842  0.49067380     2.77500
O96         O  0.20034228  0.09571583  0.97523545    -0.95500
O97         O  0.14708435  0.03779299  0.99230945    -0.76300
Zr98       Zr  0.29741266  0.04177592  0.48297131     2.70100
O99         O  0.28252267  0.09535026  0.46223431    -0.77600
O100        O  0.34184899  0.07933053  0.99743251    -0.96600
Zr101      Zr  0.26014312  0.49711923  0.10212388     2.21500
Zr102      Zr  0.24722372  0.49762527  0.39642013     2.11100
O103        O  0.25130777  0.03363371  0.43618912    -2.45300
O104        O  0.24743356  0.04871802  0.04454915    -0.77400
O105        O  0.20485794  0.49421111  0.45523224    -0.69600
O106        O  0.30354552  0.50377265  0.04607764    -2.30500
O107        O  0.21258714  0.49190134  0.05604991    -2.26700
O108        O  0.29537383  0.50251647  0.44049354    -0.71300
H109        H  0.25666607  0.43349754  0.43038431     0.80700
H110        H  0.32269161  0.50645842  0.06444071     0.81800
H111        H  0.24920892  0.04994276  0.41067619     0.84000
H112        H  0.19497962  0.49037426  0.07904653     0.81600
H113        H  0.36577798  0.48813965  0.98713147     0.44600
H114        H  0.36326104  0.03897677  0.46697604     0.43600
H115        H  0.28866061  0.10556526  0.93468503     0.43300
H116        H  0.20567979  0.09186249  0.44015991     0.41200
H117        H  0.14552244  0.00844931  0.47316856     0.44400
H118        H  0.15323047  0.45568911  0.03720320     0.39100
H119        H  0.22087070  0.38437788  0.04760476     0.45300
H120        H  0.32614313  0.39815428  0.46970392     0.41700
H121        H  0.18164603  0.09393577  0.48518689     0.46600
H122        H  0.15496177  0.42173524  0.01544494     0.45300
H123        H  0.32834872  0.39643579  0.02260412     0.45400
H124        H  0.35443546  0.07457554  0.46237655     0.45800
O125        O  0.44541811  0.30730512  0.09298152    -0.73100
O126        O  0.47446166  0.27855226  0.14924511    -0.52000
C127        C  0.45428971  0.30010942  0.13871012     0.80700
O128        O  0.44966335  0.16974947  0.43007350    -0.57700
O129        O  0.46428756  0.20029178  0.36181202    -0.50700
C130        C  0.45202644  0.17519316  0.38185001     0.72700
O131        O  0.45736644  0.17656054  0.09933533    -0.72200
O132        O  0.48460705  0.20697245  0.15417326    -0.52800
C133        C  0.46717191  0.18335363  0.14416737     0.78700
O134        O  0.43208295  0.30292754  0.42171802    -0.57400
O135        O  0.45787277  0.27901324  0.35631984    -0.50500
C136        C  0.43786234  0.29861917  0.37401328     0.75300
Zr137      Zr  0.45354078  0.28762427  0.00506324     2.54700
O138        O  0.39813538  0.27810326  0.01455296    -0.77900
O139        O  0.43754553  0.34134662  0.50455490    -0.91300
Zr140      Zr  0.46005664  0.19487958  0.01080174     2.64700
O141        O  0.40527342  0.18932924  0.03271253    -0.96300
O142        O  0.46716801  0.13802027  0.51499487    -0.78400
O143        O  0.45985374  0.24213939  0.05814475    -0.81700
O144        O  0.45092090  0.23891371  0.45731294    -2.16400
O145        O  0.05182073  0.31427300  0.39787330    -0.65100
O146        O  0.02555986  0.28226291  0.34395148    -0.49700
C147        C  0.04372920  0.30568788  0.35287579     0.73700
O148        O  0.07348254  0.18361330  0.07285076    -0.58000
O149        O  0.04863427  0.20674390  0.14005078    -0.50000
C150        C  0.06812482  0.18694767  0.12100102     0.75500
O151        O  0.05615415  0.18294809  0.39972723    -0.69400
O152        O  0.02750743  0.21265289  0.34459549    -0.48100
C153        C  0.04691497  0.19036724  0.35446133     0.76800
O154        O  0.06756098  0.31060182  0.07424739    -0.64700
O155        O  0.04611119  0.28290870  0.14107293    -0.51900
C156        C  0.06373607  0.30473965  0.12229092     0.75200
Zr157      Zr  0.04676302  0.29517668  0.48645735     2.77500
O158        O  0.10244170  0.29837880  0.47008151    -0.95500
O159        O  0.04287944  0.35203386  0.48404166    -0.76300
Zr160      Zr  0.05121095  0.20280563  0.48742446     2.70100
O161        O  0.10661295  0.21239253  0.47570754    -0.77600
O162        O  0.06626786  0.14648042  0.99467791    -0.96600
Zr163      Zr  0.01253849  0.24429660  0.10049939     2.21500
Zr164      Zr  0.99508640  0.24627711  0.39875937     2.11100
O165        O  0.04550954  0.24885462  0.43690095    -2.45300
O166        O  0.05576121  0.24768927  0.04143107    -0.77400
O167        O  0.99689395  0.29258816  0.44931620    -0.69600
O168        O  0.01215039  0.19845880  0.04857178    -2.30500
O169        O  0.00645972  0.29117130  0.05076920    -2.26700
O170        O  0.00149257  0.20007428  0.44989758    -0.71300
H171        H  0.43162176  0.23622793  0.43920335     0.80700
H172        H  0.01474923  0.17962324  0.06876009     0.81800
H173        H  0.06169472  0.24960324  0.41110898     0.84000
H174        H  0.00706902  0.30946704  0.07197081     0.81600
H175        H  0.48622505  0.13502041  0.98993004     0.44600
H176        H  0.04294160  0.13764215  0.46666843     0.43600
H177        H  0.11057172  0.21210921  0.93383330     0.43300
H178        H  0.10555662  0.28858255  0.43640441     0.41200
H179        H  0.02145209  0.35624667  0.47230464     0.44400
H180        H  0.46027233  0.35310976  0.02366916     0.39100
H181        H  0.39436080  0.27720297  0.05182049     0.45300
H182        H  0.40179991  0.16769222  0.53161059     0.41700
H183        H  0.10641087  0.32095548  0.46373979     0.46600
H184        H  0.42460728  0.34741736  0.01531823     0.45300
H185        H  0.40245602  0.20190534  0.06388858     0.45400
H186        H  0.07906865  0.14321664  0.46703610     0.45800
C187        C  0.12866952  0.11851871  0.20888614     0.47700
H188        H  0.13152189  0.11932089  0.16688469    -0.01300
C189        C  0.12280600  0.11671746  0.30697491     0.47700
H190        H  0.12067927  0.11686173  0.34928287    -0.01300
C191        C  0.14977504  0.14146327  0.23565440    -0.15000
C192        C  0.09573469  0.12867647  0.22785305    -0.14800
C193        C  0.13905100  0.08657000  0.23295629    -0.15200
C194        C  0.14623680  0.14066199  0.28695918    -0.15100
C195        C  0.09261737  0.12660866  0.28033360    -0.14700
C196        C  0.13586309  0.08574637  0.28566544    -0.15000
C197        C  0.38144138  0.11630783  0.19931155     0.47700
H198        H  0.37987380  0.11669825  0.15701658    -0.01300
C199        C  0.38387911  0.11649647  0.29767870     0.47700
H200        H  0.38407265  0.11665225  0.34001734    -0.01300
C201        C  0.36042748  0.14032517  0.22399215    -0.15000
C202        C  0.37029752  0.08521810  0.22320606    -0.14800
C203        C  0.41384573  0.12551359  0.21955263    -0.15200
C204        C  0.36108460  0.14009487  0.27541510    -0.15100
C205        C  0.37258613  0.08490245  0.27565140    -0.14700
C206        C  0.41496206  0.12715357  0.27238632    -0.15000
C207        C  0.12771909  0.37061903  0.19946182     0.47700
H208        H  0.12877914  0.36951301  0.15716205    -0.01300
C209        C  0.12685853  0.37348771  0.29799747     0.47700
H210        H  0.12625034  0.37396407  0.34028210    -0.01300
C211        C  0.14825582  0.34656406  0.22562045    -0.15000
C212        C  0.14027066  0.40189570  0.21950855    -0.14800
C213        C  0.09528521  0.36303448  0.22260986    -0.15200
C214        C  0.14742978  0.34757045  0.27709737    -0.15100
C215        C  0.14081880  0.40339237  0.27209321    -0.14700
C216        C  0.09464319  0.36542922  0.27527170    -0.15000
C217        C  0.37856539  0.36950228  0.29781287     0.47700
H218        H  0.37762947  0.36545691  0.33966588    -0.01300
C219        C  0.37925983  0.37898154  0.20034480     0.47700
H220        H  0.37925634  0.38251392  0.15828813    -0.01300
C221        C  0.35367029  0.35146098  0.26972858    -0.15000
C222        C  0.37141334  0.40389756  0.28311088    -0.14800
C223        C  0.40893365  0.35804118  0.27207343    -0.15200
C224        C  0.35399646  0.35652683  0.21876387    -0.15100
C225        C  0.37093071  0.40887797  0.23068959    -0.14700
C226        C  0.40945310  0.36320562  0.21988183    -0.15000
C227        C  0.08325136  0.32335940  0.15690817    -0.14200
C228        C  0.07272246  0.34367360  0.19255354    -0.29400
H229        H  0.10797818  0.32138303  0.14947136     0.14800
H230        H  0.04794242  0.34545238  0.20043859     0.15400
C231        C  0.07092196  0.35162521  0.31186719    -0.14200
C232        C  0.05787869  0.32278211  0.30807575    -0.29400
H233        H  0.06908079  0.36326117  0.34835169     0.14800
H234        H  0.06022603  0.30977880  0.27307119     0.15400
C235        C  0.06869671  0.14229893  0.31375622    -0.14200
C236        C  0.06092122  0.17302545  0.31051864    -0.29400
H237        H  0.06277242  0.12985305  0.34889289     0.14800
H238        H  0.06730616  0.18663104  0.27684252     0.15400
C239        C  0.08682410  0.16661930  0.15552711    -0.14200
C240        C  0.07526972  0.14947251  0.19537359    -0.29400
H241        H  0.11115477  0.16457450  0.14500641     0.14800
H242        H  0.05081855  0.15168663  0.20551268     0.15400
C243        C  0.43408117  0.14168424  0.18044455    -0.14200
C244        C  0.45709597  0.16270124  0.18717351    -0.29400
H245        H  0.42620543  0.13855175  0.14165145     0.14800
H246        H  0.46789732  0.16613924  0.22361846     0.15400
C247        C  0.43993007  0.14952783  0.34920600    -0.14200
C248        C  0.43254992  0.15242312  0.29967457    -0.29400
H249        H  0.43547985  0.12713825  0.36807901     0.14800
H250        H  0.43460218  0.17541718  0.28201874     0.15400
C251        C  0.41870003  0.31722047  0.33837591    -0.14200
C252        C  0.43000122  0.33589963  0.30033148    -0.29400
H253        H  0.39408581  0.31746639  0.34768195     0.14800
H254        H  0.45458393  0.33523866  0.29047683     0.15400
C255        C  0.43957295  0.31688545  0.18293372    -0.14200
C256        C  0.42993955  0.34718949  0.18069519    -0.29400
H257        H  0.43571512  0.30319400  0.21744798     0.14800
H258        H  0.43335522  0.35980212  0.14488669     0.15400
C259        C  0.35736537  0.06225721  0.31214146    -0.14200
C260        C  0.32834549  0.05041885  0.30711324    -0.29400
H261        H  0.36857835  0.05972769  0.34888607     0.14800
H262        H  0.31568999  0.05338850  0.27194614     0.15400
C263        C  0.32809451  0.07688328  0.16071391    -0.14200
C264        C  0.34914442  0.06430631  0.19329360    -0.29400
H265        H  0.32707109  0.10210614  0.15570409     0.14800
H266        H  0.35039327  0.03907840  0.19866761     0.15400
C267        C  0.16180389  0.06378890  0.15453900    -0.14200
C268        C  0.16394381  0.06878480  0.20483281    -0.29400
H269        H  0.14035461  0.07043568  0.13567738     0.14800
H270        H  0.18571985  0.06345693  0.22343554     0.15400
C271        C  0.17236017  0.04064689  0.31651980    -0.14200
C272        C  0.15473470  0.06666200  0.32351145    -0.29400
H273        H  0.17248392  0.02844219  0.28063191     0.14800
H274        H  0.15541202  0.07677045  0.36127657     0.15400
C275        C  0.34716689  0.42944340  0.20573475    -0.14200
C276        C  0.35230501  0.44228504  0.15964875    -0.29400
H277        H  0.32331519  0.42811302  0.21954206     0.14800
H278        H  0.37548742  0.44030211  0.14304045     0.15400
C279        C  0.33414132  0.44577654  0.31909322    -0.14200
C280        C  0.35514065  0.42240493  0.32447548    -0.29400
H281        H  0.33051045  0.45760446  0.28323891     0.14800
H282        H  0.35783278  0.41286920  0.36274308     0.15400
C283        C  0.16119407  0.42593874  0.30081533    -0.14200
C284        C  0.17538454  0.41736306  0.34478642    -0.29400
H285        H  0.16523014  0.44924073  0.28503334     0.14800
H286        H  0.17169513  0.39391257  0.35993584     0.15400
C287        C  0.18956417  0.42626646  0.18471052    -0.14200
C288        C  0.15844406  0.42187931  0.18242536    -0.29400
H289        H  0.20208052  0.41921612  0.21870717     0.14800
H290        H  0.14665171  0.42848660  0.14748670     0.15400
C291        C  0.17611739  0.30703494  0.33518454    -0.11000
C292        C  0.16297207  0.32531878  0.30843855    -0.12600
C293        C  0.18170268  0.30883165  0.17117402    -0.11000
C294        C  0.16657464  0.32508530  0.19796849    -0.12600
C295        C  0.33205659  0.33139888  0.29520360    -0.11000
C296        C  0.31552880  0.31564441  0.32155858    -0.12600
C297        C  0.31581343  0.32829064  0.15870750    -0.11000
C298        C  0.33237836  0.34255507  0.18583235    -0.12600
C299        C  0.34358547  0.16137860  0.30527917    -0.11000
C300        C  0.32836572  0.17824518  0.33118379    -0.12600
C301        C  0.33225041  0.18185268  0.16844097    -0.11000
C302        C  0.34477168  0.16341582  0.19523226    -0.12600
C303        C  0.18115493  0.17171285  0.34781315    -0.11000
C304        C  0.16480608  0.15816662  0.31976302    -0.12600
C305        C  0.17333191  0.15924790  0.20954348    -0.11000
C306        C  0.19216548  0.17268286  0.18355874    -0.12600
O307        O  0.20413880  0.18082754  0.59916236    -0.73100
O308        O  0.23134031  0.21179356  0.65318776    -0.52000
C309        C  0.21171214  0.19033495  0.64355615     0.80700
O310        O  0.32125800  0.18840174  0.91539896    -0.57700
O311        O  0.28876154  0.21001830  0.85637523    -0.50700
C312        C  0.31161199  0.19261796  0.86977605     0.72700
O313        O  0.32754212  0.19502291  0.58181787    -0.72200
O314        O  0.29679967  0.21796075  0.64226924    -0.52800
C315        C  0.31948794  0.20079484  0.62780921     0.78700
O316        O  0.20317133  0.16877883  0.93141573    -0.57400
O317        O  0.22172799  0.20072149  0.86725451    -0.50500
C318        C  0.20651040  0.17703888  0.88475090     0.75300
Zr319      Zr  0.21799363  0.19078294  0.51040170     2.54700
O320        O  0.24066335  0.13876612  0.50974959    -0.77900
O321        O  0.16365702  0.17400307  0.01445916    -0.91300
Zr322      Zr  0.30805488  0.20662386  0.49811179     2.64700
O323        O  0.32322044  0.15164858  0.50043517    -0.96600
O324        O  0.36103191  0.22717687  0.99000288    -0.78400
O325        O  0.26498470  0.19831989  0.55363064    -0.81700
O326        O  0.26203441  0.19548188  0.95713088    -2.16400
O327        O  0.18412931  0.29290772  0.91809529    -0.65100
O328        O  0.21551602  0.27050719  0.85796115    -0.49700
C329        C  0.19327286  0.28837394  0.87220035     0.73700
O330        O  0.31143529  0.31268933  0.57639714    -0.58000
O331        O  0.28677481  0.28474197  0.63961241    -0.50000
C332        C  0.30589624  0.30531976  0.62303791     0.75500
O333        O  0.30315663  0.31222637  0.90909026    -0.69400
O334        O  0.28132531  0.27822571  0.85313027    -0.48100
C335        C  0.29788666  0.30224296  0.86426673     0.76800
O336        O  0.19019367  0.29982161  0.58687777    -0.64700
O337        O  0.22213408  0.27657268  0.64517436    -0.51900
C338        C  0.19980802  0.29455950  0.63209703     0.75200
Zr339      Zr  0.20057894  0.27917822  0.00321189     2.77500
O340        O  0.18474854  0.33620003  0.50029880    -0.95500
O341        O  0.14879855  0.25707370  0.01372327    -0.76300
Zr342      Zr  0.29070799  0.29707646  0.99532603     2.70100
O343        O  0.27057192  0.34997013  0.99179485    -0.77600
O344        O  0.34416841  0.32129376  0.48877404    -0.96600
Zr345      Zr  0.25800245  0.24638322  0.59616842     2.21500
Zr346      Zr  0.25268725  0.24069054  0.90567294     2.11100
O347        O  0.24467546  0.28798437  0.95052779    -2.45300
O348        O  0.24835007  0.29221514  0.54724377    -0.77400
O349        O  0.20761697  0.23244858  0.95760510    -0.69600
O350        O  0.30320963  0.25323733  0.54453074    -2.30500
O351        O  0.20987957  0.23762245  0.55534031    -2.26700
O352        O  0.29995356  0.25114568  0.94795511    -0.71300
H353        H  0.26443153  0.17682526  0.93696746     0.80700
H354        H  0.32181633  0.25605281  0.56431072     0.81800
H355        H  0.24146638  0.30565892  0.92788894     0.84000
H356        H  0.19264942  0.23595562  0.57909010     0.81600
H357        H  0.36018742  0.23366706  0.44569572     0.44600
H358        H  0.35360145  0.30553450  0.96192246     0.43600
H359        H  0.27078915  0.35625400  0.52840888     0.43300
H360        H  0.18894859  0.34216249  0.96882699     0.41200
H361        H  0.14128536  0.26473795  0.04710182     0.44400
H362        H  0.15440022  0.17839053  0.53666919     0.39100
H363        H  0.23619549  0.13009621  0.54421440     0.45300
H364        H  0.35004892  0.15507414  0.01368286     0.41700
H365        H  0.15767997  0.33001631  0.99327182     0.46600
H366        H  0.17131295  0.14588172  0.54014966     0.45300
H367        H  0.31031122  0.14209062  0.52795809     0.45400
H368        H  0.34296040  0.33791276  0.98343270     0.45800
O369        O  0.19635087  0.44062352  0.59719016    -0.73100
O370        O  0.22617583  0.46976070  0.65067147    -0.52000
C371        C  0.20421025  0.44978663  0.64201986     0.80700
O372        O  0.32661461  0.44928715  0.91236108    -0.57700
O373        O  0.29437731  0.46638724  0.84929979    -0.50700
C374        C  0.31957183  0.45269117  0.86532228     0.72700
O375        O  0.32578899  0.44855399  0.58114750    -0.72200
O376        O  0.29908816  0.47645973  0.64100438    -0.52800
C377        C  0.32099396  0.45773622  0.62749488     0.78700
O378        O  0.19871709  0.43098494  0.92191161    -0.57400
O379        O  0.21844431  0.46086375  0.85600819    -0.50500
C380        C  0.20076191  0.43874439  0.87429951     0.75300
Zr381      Zr  0.21265913  0.44977832  0.50805845     2.54700
O382        O  0.22542703  0.39470859  0.51599064    -0.77900
O383        O  0.15988876  0.44384598  0.00680452    -0.91300
Zr384      Zr  0.30375924  0.45874690  0.49509720     2.64700
O385        O  0.30951381  0.40212347  0.49515794    -0.96300
O386        O  0.36303933  0.46517812  0.99083171    -0.78400
O387        O  0.26056458  0.45500535  0.55212347    -0.81700
O388        O  0.26049072  0.45121252  0.95026059    -2.16400
O389        O  0.18190945  0.04177152  0.90655167    -0.65100
O390        O  0.21446648  0.02275859  0.84511945    -0.49700
C391        C  0.18880877  0.03631873  0.85986802     0.73700
O392        O  0.31569126  0.06370706  0.56262398    -0.58000
O393        O  0.29442822  0.03697542  0.63055793    -0.50000
C394        C  0.31290663  0.05787786  0.61065074     0.75500
O395        O  0.32598431  0.04101087  0.92011157    -0.69400
O396        O  0.29524694  0.02824892  0.85340429    -0.48100
C397        C  0.32052031  0.04001586  0.87236363     0.76800
O398        O  0.18629240  0.04647846  0.57656662    -0.64700
O399        O  0.21841833  0.02714506  0.63844190    -0.51900
C400        C  0.19374715  0.04140246  0.62374410     0.75200
Zr401      Zr  0.20372626  0.03965017  0.99130099     2.77500
O402        O  0.20360073  0.08865667  0.47748079    -0.95500
O403        O  0.14999204  0.02773904  0.49239295    -0.76300
Zr404      Zr  0.29342985  0.04939784  0.99401825     2.70100
O405        O  0.27690762  0.10136141  0.96668281    -0.77600
O406        O  0.35234490  0.05600017  0.48513522    -0.96600
Zr407      Zr  0.25846852  0.50406182  0.59537819     2.21500
Zr408      Zr  0.25455526  0.49767650  0.89727880     2.11100
O409        O  0.24956866  0.04340075  0.93995892    -2.45300
O410        O  0.25263682  0.04198108  0.53752249    -0.77400
O411        O  0.21098339  0.49157827  0.95483651    -0.69600
O412        O  0.30171333  0.50684433  0.53798836    -2.30500
O413        O  0.21004793  0.49744392  0.55324402    -2.26700
O414        O  0.29996292  0.50358626  0.94798258    -0.71300
H415        H  0.26224561  0.43279469  0.92939609     0.80700
H416        H  0.32093227  0.50945020  0.55619991     0.81800
H417        H  0.24810147  0.06035495  0.91536412     0.84000
H418        H  0.19281429  0.49696132  0.57711399     0.81600
H419        H  0.36329927  0.48729390  0.50978522     0.44600
H420        H  0.35866337  0.06349059  0.99701136     0.43600
H421        H  0.29799275  0.10245804  0.43637476     0.43300
H422        H  0.20737316  0.09870933  0.93946570     0.41200
H423        H  0.14179278  0.01749049  0.97668536     0.44400
H424        H  0.14843442  0.45415062  0.53637020     0.39100
H425        H  0.21493182  0.38763394  0.54784044     0.45300
H426        H  0.31858988  0.39534302  0.96532199     0.41700
H427        H  0.17773560  0.10010447  0.97443656     0.46600
H428        H  0.15453156  0.41868114  0.52493512     0.45300
H429        H  0.31911530  0.39678761  0.52829325     0.45400
H430        H  0.34383708  0.09055558  0.96430597     0.45800
O431        O  0.43900838  0.30184989  0.59352453    -0.73100
O432        O  0.47371476  0.28287830  0.65161886    -0.52000
C433        C  0.44963650  0.29948161  0.63919516     0.80700
O434        O  0.43925209  0.17539009  0.93034949    -0.57700
O435        O  0.46254249  0.19974199  0.86204434    -0.50700
C436        C  0.44401993  0.17896706  0.88200708     0.72700
O437        O  0.45524431  0.17689688  0.60020667    -0.72200
O438        O  0.47762049  0.21192600  0.65408679    -0.52800
C439        C  0.46151830  0.18700121  0.64519753     0.78700
O440        O  0.43998517  0.30784198  0.91813238    -0.57400
O441        O  0.45779156  0.27425301  0.85725032    -0.50500
C442        C  0.44284213  0.29882577  0.87120480     0.75300
Zr443      Zr  0.45000133  0.28565640  0.50576469     2.54700
O444        O  0.39541413  0.27224236  0.51546857    -0.77900
O445        O  0.44531093  0.34400410  0.99948856    -0.91300
Zr446      Zr  0.46109370  0.19466676  0.51095647     2.64700
O447        O  0.40521966  0.19004102  0.52269845    -0.96300
O448        O  0.46652788  0.13825128  0.00900988    -0.78400
O449        O  0.45875551  0.24139830  0.55913615    -0.81700
O450        O  0.45184555  0.23996865  0.95824865    -2.16400
O451        O  0.05173910  0.31486516  0.90372651    -0.65100
O452        O  0.02472998  0.28493925  0.84767060    -0.49700
C453        C  0.04252147  0.30836764  0.85836748     0.73700
O454        O  0.06756166  0.18115619  0.56930869    -0.58000
O455        O  0.04820811  0.20802865  0.63746713    -0.50000
C456        C  0.06393555  0.18536847  0.61750962     0.75500
O457        O  0.05713663  0.18000462  0.90352345    -0.69400
O458        O  0.02607260  0.20700889  0.84831534    -0.48100
C459        C  0.04575595  0.18495765  0.85876661     0.76800
O460        O  0.06484317  0.31612991  0.56776408    -0.64700
O461        O  0.04700157  0.28780485  0.63656090    -0.51900
C462        C  0.06219191  0.31120308  0.61625474     0.75200
Zr463      Zr  0.04811521  0.29382363  0.99103440     2.77500
O464        O  0.10358986  0.29644755  0.97246573    -0.95500
O465        O  0.04528086  0.35074618  0.99433926    -0.76300
Zr466      Zr  0.05415537  0.20216951  0.98976084     2.70100
O467        O  0.10839580  0.21420463  0.97123002    -0.77600
O468        O  0.05989000  0.14636006  0.48754482    -0.96600
Zr469      Zr  0.01298901  0.24700873  0.59890748     2.21500
Zr470      Zr  0.99749567  0.24536645  0.90051244     2.11100
O471        O  0.04786797  0.24829815  0.93922663    -2.45300
O472        O  0.05505054  0.24911810  0.53745558    -0.77400
O473        O  0.99879126  0.29104390  0.95218310    -0.69600
O474        O  0.00995742  0.20064827  0.54823518    -2.30500
O475        O  0.00585720  0.29328348  0.54767065    -2.26700
O476        O  0.00474114  0.19892929  0.95074608    -0.71300
H477        H  0.43240010  0.23837525  0.94029509     0.80700
H478        H  0.01135721  0.18188853  0.56900395     0.81800
H479        H  0.06392149  0.24955568  0.91325394     0.84000
H480        H  0.00649786  0.31188016  0.56814698     0.81600
H481        H  0.48904807  0.13441767  0.50448317     0.44600
H482        H  0.04815342  0.13590230  0.97938463     0.43600
H483        H  0.11465035  0.19308103  0.45977425     0.43300
H484        H  0.10690367  0.28196454  0.94374925     0.41200
H485        H  0.02831834  0.35652841  0.97076361     0.44400
H486        H  0.45396721  0.35127311  0.52510224     0.39100
H487        H  0.39376011  0.26219596  0.54958967     0.45300
H488        H  0.40316791  0.16733381  0.04467605     0.41700
H489        H  0.10668837  0.31754037  0.95712869     0.46600
H490        H  0.41832514  0.34323788  0.52540521     0.45300
H491        H  0.40080646  0.20129208  0.55474515     0.45400
H492        H  0.08356441  0.14331533  0.97008503     0.45800
C493        C  0.13097757  0.12705641  0.70121969     0.47700
H494        H  0.13333231  0.13503573  0.66095546    -0.01300
C495        C  0.12909482  0.11008021  0.79582594     0.47700
H496        H  0.12843938  0.10289049  0.83669271    -0.01300
C497        C  0.15454187  0.14362519  0.73425825    -0.15000
C498        C  0.09953532  0.13508609  0.72677620    -0.14800
C499        C  0.13925700  0.09228830  0.70890827    -0.15200
C500        C  0.15353574  0.13468650  0.78384048    -0.15100
C501        C  0.09862750  0.12701602  0.77826477    -0.14700
C502        C  0.14002519  0.08316729  0.75999875    -0.15000
C503        C  0.38351334  0.11750364  0.69566314     0.47700
H504        H  0.38449705  0.11993409  0.65343079    -0.01300
C505        C  0.38067707  0.11324692  0.79424383     0.47700
H506        H  0.37904820  0.11121872  0.83632494    -0.01300
C507        C  0.36216124  0.14142975  0.72073641    -0.15000
C508        C  0.37037397  0.08579714  0.71453820    -0.14800
C509        C  0.41500355  0.12404785  0.72108802    -0.15200
C510        C  0.36009995  0.13885057  0.77222208    -0.15100
C511        C  0.36881056  0.08324573  0.76673806    -0.14700
C512        C  0.41349531  0.12359799  0.77394140    -0.15000
C513        C  0.12991016  0.37176775  0.70190550     0.47700
H514        H  0.13051895  0.37037227  0.65972710    -0.01300
C515        C  0.13181835  0.37469949  0.80008814     0.47700
H516        H  0.13289999  0.37562919  0.84233580    -0.01300
C517        C  0.15288337  0.34933061  0.72633313    -0.15000
C518        C  0.14102855  0.40403690  0.72119910    -0.14800
C519        C  0.09868296  0.36100236  0.72730304    -0.15200
C520        C  0.15350228  0.35033861  0.77775837    -0.15100
C521        C  0.14283870  0.40548632  0.77365207    -0.14700
C522        C  0.09959060  0.36361311  0.78030842    -0.15000
C523        C  0.37488317  0.37669769  0.79609980     0.47700
H524        H  0.37011684  0.37917460  0.83756563    -0.01300
C525        C  0.38556912  0.36944258  0.69975818     0.47700
H526        H  0.38977577  0.36593535  0.65831103    -0.01300
C527        C  0.35444100  0.35182666  0.77186067    -0.15000
C528        C  0.36683608  0.40645331  0.76365999    -0.14800
C529        C  0.40834568  0.36492841  0.78423663    -0.15200
C530        C  0.36014414  0.34847049  0.72140522    -0.15100
C531        C  0.37289334  0.40243653  0.71195719    -0.14700
C532        C  0.41387510  0.36053008  0.73269032    -0.15000
C533        C  0.07709497  0.33597117  0.64840024    -0.14200
C534        C  0.08005518  0.33598194  0.69980970    -0.29400
H535        H  0.08582160  0.35617211  0.62720173     0.14800
H536        H  0.07198209  0.31545487  0.72052834     0.15400
C537        C  0.08061442  0.34566923  0.82001787    -0.14200
C538        C  0.05393590  0.32904351  0.81541491    -0.29400
H539        H  0.09145808  0.34451834  0.85720919     0.14800
H540        H  0.04082979  0.32950000  0.78043497     0.15400
C541        C  0.08177409  0.14536103  0.81969687    -0.14200
C542        C  0.05607847  0.16381931  0.81617809    -0.29400
H543        H  0.09339591  0.14500258  0.85627590     0.14800
H544        H  0.04229201  0.16394145  0.78189347     0.15400
C545        C  0.07789853  0.16039164  0.64977001    -0.14200
C546        C  0.08060071  0.16022741  0.70088807    -0.29400
H547        H  0.08642383  0.14021063  0.62903247     0.14800
H548        H  0.07258877  0.18043937  0.72164816     0.15400
C549        C  0.43944737  0.13900764  0.68748508    -0.14200
C550        C  0.44774439  0.16957023  0.68986121    -0.29400
H551        H  0.44489575  0.12652646  0.65269888     0.14800
H552        H  0.44158086  0.18304069  0.72326152     0.15400
C553        C  0.42500933  0.15831647  0.84867835    -0.14200
C554        C  0.43503584  0.14341924  0.80602386    -0.29400
H555        H  0.40140980  0.15451854  0.86216963     0.14800
H556        H  0.45883105  0.14714830  0.79304036     0.15400
C557        C  0.42776992  0.31695317  0.82903575    -0.14200
C558        C  0.42561804  0.34853399  0.82642938    -0.29400
H559        H  0.41945552  0.30350174  0.79700628     0.14800
H560        H  0.43326704  0.36233407  0.85846542     0.15400
C561        C  0.43001598  0.31566639  0.67838048    -0.14200
C562        C  0.43855168  0.33903635  0.71032227    -0.29400
H563        H  0.40529098  0.31170354  0.67350665     0.14800
H564        H  0.46297482  0.34405187  0.71654333     0.15400
C565        C  0.34461680  0.06224808  0.79170660    -0.14200
C566        C  0.34613916  0.05407844  0.84093205    -0.29400
H567        H  0.32413606  0.05549640  0.77052326     0.14800
H568        H  0.36692617  0.06070923  0.86150923     0.15400
C569        C  0.33268472  0.07729438  0.64401153    -0.14200
C570        C  0.35092226  0.06532762  0.68101349    -0.29400
H571        H  0.33384048  0.10216310  0.63508887     0.14800
H572        H  0.34982853  0.04036017  0.68946780     0.15400
C573        C  0.17219827  0.05077928  0.66528542    -0.14200
C574        C  0.15660535  0.07794038  0.66467673    -0.29400
H575        H  0.17103153  0.03530391  0.69815307     0.14800
H576        H  0.15861858  0.09214124  0.63013542     0.15400
C577        C  0.16329119  0.04627319  0.82426216    -0.14200
C578        C  0.16646769  0.06310167  0.78070051    -0.29400
H579        H  0.13994313  0.04500739  0.84048505     0.14800
H580        H  0.18967766  0.06659737  0.76486782     0.15400
C581        C  0.35678058  0.41889098  0.66805909    -0.14200
C582        C  0.34171586  0.44652255  0.66934784    -0.29400
H583        H  0.35552551  0.40588216  0.63278950     0.14800
H584        H  0.34275364  0.46080350  0.70309863     0.15400
C585        C  0.34431093  0.43963895  0.83105826    -0.14200
C586        C  0.34138667  0.42736933  0.78441643    -0.29400
H587        H  0.36675500  0.43631114  0.84919342     0.14800
H588        H  0.31923245  0.42890974  0.76502907     0.15400
C589        C  0.16309780  0.42851930  0.80175773    -0.14200
C590        C  0.18203264  0.41869329  0.83987963    -0.29400
H591        H  0.16292374  0.45307991  0.79051315     0.14800
H592        H  0.18205961  0.39402323  0.85023943     0.15400
C593        C  0.18686100  0.43608987  0.68673418    -0.14200
C594        C  0.15736732  0.42497653  0.68278914    -0.29400
H595        H  0.19929644  0.43387979  0.72229593     0.14800
H596        H  0.14626026  0.42680409  0.64585845     0.15400
C597        C  0.17911512  0.30724595  0.83478880    -0.11000
C598        C  0.16812864  0.32694303  0.80806198    -0.12600
C599        C  0.18441637  0.31088572  0.67053363    -0.11000
C600        C  0.17018015  0.32764216  0.69765686    -0.12600
C601        C  0.33085649  0.33452540  0.79896104    -0.11000
C602        C  0.31331262  0.31911943  0.82459413    -0.12600
C603        C  0.32391130  0.31991314  0.65949580    -0.11000
C604        C  0.34069011  0.33152155  0.68915005    -0.12600
C605        C  0.34206298  0.15937904  0.80328177    -0.11000
C606        C  0.32751904  0.17571986  0.83142607    -0.12600
C607        C  0.33600345  0.18467984  0.66563909    -0.11000
C608        C  0.34822703  0.16601587  0.69259199    -0.12600
C609        C  0.19072878  0.15881178  0.84954068    -0.11000
C610        C  0.17439818  0.14599911  0.82034561    -0.12600
C611        C  0.17782690  0.16326170  0.71246060    -0.11000
C612        C  0.19557613  0.17671074  0.68500264    -0.12600
O613        O  0.20914999  0.67543036  0.09885806    -0.73100
O614        O  0.23230488  0.70982284  0.15253391    -0.52000
C615        C  0.21511790  0.68617648  0.14302731     0.80700
O616        O  0.32433463  0.68954103  0.41259575    -0.57700
O617        O  0.29206783  0.71080042  0.35282885    -0.50700
C618        C  0.31495229  0.69386940  0.36704590     0.72700
O619        O  0.32818296  0.69331792  0.08341737    -0.72200
O620        O  0.29705307  0.71667630  0.14290246    -0.52800
C621        C  0.31950132  0.69886020  0.12922463     0.78700
O622        O  0.20698372  0.66761156  0.42811541    -0.57400
O623        O  0.22566878  0.69889766  0.36323167    -0.50500
C624        C  0.21046456  0.67532756  0.38118059     0.75300
Zr625      Zr  0.22191933  0.68642679  0.01068444     2.54700
O626        O  0.24020750  0.63413967  0.03159980    -0.77900
O627        O  0.16673779  0.67539880  0.51100649    -0.91300
Zr628      Zr  0.31149988  0.70666356  0.99845130     2.64700
O629        O  0.33066834  0.65295557  0.99824701    -0.96600
O630        O  0.36327054  0.72865492  0.48303225    -0.78400
O631        O  0.26839647  0.69740200  0.05330259    -0.81700
O632        O  0.26517443  0.69549445  0.45338231    -2.16400
O633        O  0.18500290  0.78975174  0.41328447    -0.65100
O634        O  0.21638785  0.76734715  0.35320728    -0.49700
C635        C  0.19339863  0.78421474  0.36738588     0.73700
O636        O  0.30396955  0.81798305  0.07032199    -0.58000
O637        O  0.28615364  0.78616440  0.13494739    -0.50000
C638        C  0.30081074  0.80991241  0.11709680     0.75500
O639        O  0.30948126  0.80738697  0.40085085    -0.69400
O640        O  0.28453222  0.77527753  0.34565836    -0.48100
C641        C  0.30341402  0.79756214  0.35613566     0.76800
O642        O  0.18687136  0.79306957  0.08212566    -0.64700
O643        O  0.22058980  0.77408130  0.14178519    -0.51900
C644        C  0.19669962  0.78960510  0.12769036     0.75200
Zr645      Zr  0.20352988  0.77909172  0.49799528     2.77500
O646        O  0.18273169  0.83002645  0.99943326    -0.95500
O647        O  0.15070651  0.75955207  0.50727145    -0.76300
Zr648      Zr  0.29301572  0.79817814  0.48815740     2.70100
O649        O  0.26965680  0.84941775  0.47679212    -0.77600
O650        O  0.34414014  0.81576697  0.98634853    -0.96600
Zr651      Zr  0.25866190  0.74512206  0.09502293     2.21500
Zr652      Zr  0.25521508  0.74016477  0.40116414     2.11100
O653        O  0.24687595  0.78828106  0.44361643    -2.45300
O654        O  0.24698899  0.78931918  0.04304118    -0.77400
O655        O  0.21067947  0.73190700  0.45382205    -0.69600
O656        O  0.30364682  0.75370908  0.04317689    -2.30500
O657        O  0.21149668  0.73347134  0.05318256    -2.26700
O658        O  0.30231117  0.75132424  0.44336275    -0.71300
H659        H  0.26781055  0.67676074  0.43358646     0.80700
H660        H  0.32179322  0.75822806  0.06326550     0.81800
H661        H  0.24315729  0.80529449  0.41989525     0.84000
H662        H  0.19422303  0.73097950  0.07667343     0.81600
H663        H  0.36632738  0.73136806  0.95151343     0.44600
H664        H  0.35638959  0.81103720  0.46182644     0.43600
H665        H  0.26459154  0.85190679  0.94439349     0.43300
H666        H  0.19567703  0.84232417  0.46320070     0.41200
H667        H  0.14406703  0.76560808  0.54200393     0.44400
H668        H  0.15655898  0.68710396  0.02892912     0.39100
H669        H  0.25640260  0.63700540  0.05773205     0.45300
H670        H  0.34939773  0.65322601  0.51427235     0.41700
H671        H  0.16289517  0.83134055  0.48317340     0.46600
H672        H  0.16663451  0.65211221  0.03595487     0.45300
H673        H  0.32162586  0.64285127  0.02916784     0.45400
H674        H  0.34013020  0.84365741  0.46548417     0.45800
O675        O  0.19442209  0.93744489  0.09542524    -0.73100
O676        O  0.22016588  0.96817666  0.15216906    -0.52000
C677        C  0.20032935  0.94667191  0.14126090     0.80700
O678        O  0.33113000  0.93952812  0.42282742    -0.57700
O679        O  0.29857373  0.95152159  0.35708606    -0.50700
C680        C  0.32435577  0.94034128  0.37529356     0.72700
O681        O  0.32200094  0.95024418  0.09423491    -0.72200
O682        O  0.29091083  0.97566520  0.15129456    -0.52800
C683        C  0.31462352  0.95836407  0.13997425     0.78700
O684        O  0.19643731  0.92238574  0.42512096    -0.57400
O685        O  0.22014778  0.94681394  0.35717185    -0.50500
C686        C  0.20002688  0.92761583  0.37680931     0.75300
Zr687      Zr  0.21198822  0.94810508  0.00616201     2.54700
O688        O  0.22224332  0.89215671  0.01040772    -0.77900
O689        O  0.16025120  0.92942330  0.50841198    -0.91300
Zr690      Zr  0.30248977  0.95763478  0.00754190     2.64700
O691        O  0.30499347  0.90102381  0.01781818    -0.96300
O692        O  0.36383860  0.95090061  0.50955148    -0.78400
O693        O  0.25652205  0.95458372  0.05802717    -0.81700
O694        O  0.26173875  0.94011569  0.45573338    -2.16400
O695        O  0.17485151  0.54450806  0.42178159    -0.65100
O696        O  0.20280721  0.52514430  0.35490617    -0.49700
C697        C  0.17856103  0.53887944  0.37430586     0.73700
O698        O  0.31220971  0.56496809  0.08147110    -0.58000
O699        O  0.29582542  0.53215632  0.14564872    -0.50000
C700        C  0.31174887  0.55560981  0.12826641     0.75500
O701        O  0.31636487  0.55011736  0.39721755    -0.69400
O702        O  0.27981583  0.53219683  0.34241580    -0.48100
C703        C  0.30601918  0.54571276  0.35201797     0.76800
O704        O  0.18847387  0.55037198  0.09058636    -0.64700
O705        O  0.22288777  0.53030624  0.14844661    -0.51900
C706        C  0.19843346  0.54629821  0.13632832     0.75200
Zr707      Zr  0.20308524  0.54168870  0.50053676     2.77500
O708        O  0.19849612  0.59326856  0.99726517    -0.95500
O709        O  0.14963100  0.52985365  0.01223020    -0.76300
Zr710      Zr  0.29384400  0.55059748  0.48312892     2.70100
O711        O  0.28176661  0.60427319  0.45871019    -0.77600
O712        O  0.34601179  0.57291110  0.00988118    -0.96600
Zr713      Zr  0.25178362  0.00390661  0.10042263     2.21500
Zr714      Zr  0.25642696  0.98339928  0.39659743     2.11100
O715        O  0.24523131  0.54622533  0.44113407    -2.45300
O716        O  0.25177949  0.54413257  0.05263059    -0.77400
O717        O  0.21109225  0.98289717  0.45025061    -0.69600
O718        O  0.29817532  0.00590759  0.04994697    -2.30500
O719        O  0.20680667  0.99639870  0.04835050    -2.26700
O720        O  0.30236171  0.99200473  0.44514636    -0.71300
H721        H  0.26366794  0.92056407  0.43789938     0.80700
H722        H  0.31657854  0.00808603  0.07034472     0.81800
H723        H  0.24208220  0.56353165  0.41757642     0.84000
H724        H  0.18809726  0.99539973  0.06897462     0.81600
H725        H  0.36183998  0.98732462  0.01075713     0.44600
H726        H  0.35995117  0.54830202  0.46979982     0.43600
H727        H  0.28968442  0.60616240  0.93923370     0.43300
H728        H  0.20087892  0.60048864  0.44779654     0.41200
H729        H  0.14303084  0.51336370  0.50368172     0.44400
H730        H  0.14776292  0.95360986  0.03436382     0.39100
H731        H  0.22987383  0.88836212  0.04541176     0.45300
H732        H  0.33123242  0.88900496  0.52056933     0.41700
H733        H  0.17367919  0.60085474  0.48784823     0.46600
H734        H  0.15323603  0.91812055  0.02242011     0.45300
H735        H  0.29635236  0.89677065  0.05234038     0.45400
H736        H  0.35056356  0.58336977  0.45986862     0.45800
O737        O  0.45287770  0.80431536  0.08994701    -0.73100
O738        O  0.48068614  0.77551082  0.14775087    -0.52000
C739        C  0.46107637  0.79724322  0.13610660     0.80700
O740        O  0.45051317  0.66997413  0.43004429    -0.57700
O741        O  0.46684829  0.69885983  0.36092335    -0.50700
C742        C  0.45381505  0.67441129  0.38167097     0.72700
O743        O  0.46162952  0.67360714  0.09666485    -0.72200
O744        O  0.48886743  0.70409951  0.15152946    -0.52800
C745        C  0.47110166  0.68061475  0.14165260     0.78700
O746        O  0.43571039  0.80342921  0.41412533    -0.57400
O747        O  0.46193382  0.77762736  0.35113954    -0.50500
C748        C  0.44201158  0.79813186  0.36691683     0.75300
Zr749      Zr  0.46150044  0.78528564  0.00157440     2.54700
O750        O  0.40557638  0.77784547  0.00872746    -0.77900
O751        O  0.44476978  0.84421973  0.49070522    -0.91300
Zr752      Zr  0.46602062  0.69299292  0.00866792     2.64700
O753        O  0.41067600  0.69552140  0.02720036    -0.96300
O754        O  0.46912224  0.64021106  0.51999857    -0.78400
O755        O  0.46618280  0.74022127  0.05578658    -0.81700
O756        O  0.45297768  0.73996337  0.45398955    -2.16400
O757        O  0.04700396  0.81369058  0.40050169    -0.65100
O758        O  0.01990981  0.78294082  0.34574873    -0.49700
C759        C  0.03777484  0.80646641  0.35555880     0.73700
O760        O  0.06862733  0.67977084  0.06785364    -0.58000
O761        O  0.04931347  0.70665905  0.13603218    -0.50000
C762        C  0.06556377  0.68441442  0.11593711     0.75500
O763        O  0.05663794  0.68396549  0.40003772    -0.69400
O764        O  0.02305767  0.70837300  0.34581440    -0.48100
C765        C  0.04478327  0.68829992  0.35554010     0.76800
O766        O  0.06231640  0.81425618  0.06802549    -0.64700
O767        O  0.04484096  0.78536530  0.13648179    -0.51900
C768        C  0.05926836  0.80919032  0.11625866     0.75200
Zr769      Zr  0.04401791  0.79384133  0.48785895     2.77500
O770        O  0.09989072  0.79381426  0.47267915    -0.95500
O771        O  0.04027229  0.85071424  0.48592179    -0.76300
Zr772      Zr  0.05114106  0.70271539  0.48777326     2.70100
O773        O  0.10573760  0.71590430  0.47546656    -0.77600
O774        O  0.05511969  0.64378906  0.98817895    -0.96600
Zr775      Zr  0.01198874  0.74411567  0.09915615     2.21500
Zr776      Zr  0.99262543  0.74409469  0.39990988     2.11100
O777        O  0.04337832  0.74816698  0.43677161    -2.45300
O778        O  0.05410446  0.74650061  0.03810650    -0.77400
O779        O  0.99426813  0.79000225  0.45092820    -0.69600
O780        O  0.00929222  0.69824894  0.04767086    -2.30500
O781        O  0.00451182  0.79022839  0.04833831    -2.26700
O782        O  0.00126901  0.69836560  0.45115599    -0.71300
H783        H  0.43391199  0.73747484  0.43517473     0.80700
H784        H  0.01165896  0.67940423  0.06791390     0.81800
H785        H  0.05924056  0.74950647  0.41050292     0.84000
H786        H  0.00489833  0.80884844  0.06884487     0.81600
H787        H  0.48525931  0.62957690  0.99828276     0.44600
H788        H  0.04648126  0.63775082  0.46206033     0.43600
H789        H  0.11192677  0.68866478  0.95274666     0.43300
H790        H  0.10246534  0.78858080  0.43622390     0.41200
H791        H  0.01777461  0.85491597  0.48182951     0.44400
H792        H  0.47472910  0.84965568  0.02099389     0.39100
H793        H  0.39907194  0.79132096  0.03735409     0.45300
H794        H  0.40145395  0.66843787  0.50390543     0.41700
H795        H  0.10596258  0.81614160  0.47459875     0.46600
H796        H  0.43835871  0.84703555  0.01947918     0.45300
H797        H  0.40914749  0.70538472  0.06109428     0.45400
H798        H  0.08223088  0.64502144  0.46594982     0.45800
C799        C  0.13159454  0.62266477  0.20212180     0.47700
H800        H  0.13446493  0.62734956  0.16064917    -0.01300
C801        C  0.12828604  0.61219699  0.29924936     0.47700
H802        H  0.12719421  0.60891549  0.34115606    -0.01300
C803        C  0.15774310  0.63763606  0.23225860    -0.15000
C804        C  0.10177622  0.63656351  0.22692625    -0.14800
C805        C  0.13456510  0.58764803  0.21620565    -0.15200
C806        C  0.15600689  0.63192346  0.28293060    -0.15100
C807        C  0.10024684  0.63140777  0.27906112    -0.14700
C808        C  0.13367437  0.58175832  0.26820320    -0.15000
C809        C  0.38382371  0.61489286  0.19950971     0.47700
H810        H  0.38216311  0.61471235  0.15725748    -0.01300
C811        C  0.38638597  0.61589949  0.29786259     0.47700
H812        H  0.38646550  0.61643539  0.34018236    -0.01300
C813        C  0.36300578  0.63947117  0.22341722    -0.15000
C814        C  0.37265328  0.58403404  0.22477839    -0.14800
C815        C  0.41633055  0.62421706  0.21915304    -0.15200
C816        C  0.36384724  0.63942369  0.27485406    -0.15100
C817        C  0.37449330  0.58439419  0.27706083    -0.14700
C818        C  0.41760076  0.62597913  0.27206740    -0.15000
C819        C  0.12652183  0.86714238  0.20028809     0.47700
H820        H  0.12657196  0.86655983  0.15800092    -0.01300
C821        C  0.12908561  0.86810895  0.29852373     0.47700
H822        H  0.13028314  0.86792227  0.34076842    -0.01300
C823        C  0.14839138  0.84302056  0.22304092    -0.15000
C824        C  0.13914547  0.89843762  0.22088794    -0.14800
C825        C  0.09510510  0.85776952  0.22591184    -0.15200
C826        C  0.14921948  0.84300844  0.27447192    -0.15100
C827        C  0.14167594  0.89863075  0.27350254    -0.14700
C828        C  0.09619570  0.85983065  0.27869096    -0.15000
C829        C  0.38167671  0.86924618  0.28682232     0.47700
H830        H  0.38045645  0.86796369  0.32911426    -0.01300
C831        C  0.38450323  0.87243534  0.18844755     0.47700
H832        H  0.38514875  0.87266464  0.14603142    -0.01300
C833        C  0.35889786  0.84742808  0.26118954    -0.15000
C834        C  0.37151355  0.90193830  0.26474144    -0.14800
C835        C  0.41360305  0.85828985  0.26434875    -0.15200
C836        C  0.36022679  0.84967577  0.20967367    -0.15100
C837        C  0.37400640  0.90364488  0.21189103    -0.14700
C838        C  0.41501407  0.86073525  0.21180978    -0.15000
C839        C  0.07238295  0.83438270  0.14842462    -0.14200
C840        C  0.07675696  0.83286106  0.19907696    -0.29400
H841        H  0.07912496  0.85575361  0.12828830     0.14800
H842        H  0.07153120  0.81096136  0.21858599     0.15400
C843        C  0.07513216  0.84453702  0.31813941    -0.14200
C844        C  0.04972274  0.82615868  0.31208709    -0.29400
H845        H  0.08381001  0.84634200  0.35670433     0.14800
H846        H  0.03845356  0.82393560  0.27570802     0.15400
C847        C  0.08353962  0.65151740  0.31785742    -0.14200
C848        C  0.05695791  0.66839339  0.31288438    -0.29400
H849        H  0.09513610  0.65266009  0.35438674     0.14800
H850        H  0.04351100  0.66728419  0.27824667     0.15400
C851        C  0.08090078  0.66048273  0.14827069    -0.14200
C852        C  0.08441683  0.66180758  0.19896854    -0.29400
H853        H  0.08903191  0.63983216  0.12842513     0.14800
H854        H  0.07651628  0.68248523  0.21868852     0.15400
C855        C  0.43625507  0.64051114  0.17937882    -0.14200
C856        C  0.46038569  0.66040330  0.18513713    -0.29400
H857        H  0.42754482  0.63819704  0.14090566     0.14800
H858        H  0.47182062  0.66315744  0.22124153     0.15400
C859        C  0.44175801  0.64849617  0.34958666    -0.14200
C860        C  0.43594237  0.65071369  0.29932273    -0.29400
H861        H  0.43599756  0.62670234  0.36935531     0.14800
H862        H  0.43968810  0.67321054  0.28078914     0.15400
C863        C  0.42323265  0.81660087  0.32986445    -0.14200
C864        C  0.43483383  0.83722035  0.29480479    -0.29400
H865        H  0.39829769  0.81587979  0.33651411     0.14800
H866        H  0.45975100  0.83821939  0.28767117     0.15400
C867        C  0.44620467  0.81447888  0.17940520    -0.14200
C868        C  0.43743614  0.84488081  0.17585213    -0.29400
H869        H  0.44121202  0.80116602  0.21397559     0.14800
H870        H  0.44203567  0.85712601  0.14003020     0.15400
C871        C  0.35622904  0.56366478  0.31296544    -0.14200
C872        C  0.32524350  0.55814624  0.30868548    -0.29400
H873        H  0.36750052  0.55764515  0.34862321     0.14800
H874        H  0.31306546  0.56520860  0.27444313     0.15400
C875        C  0.33092855  0.57435152  0.16286954    -0.14200
C876        C  0.35153581  0.56248854  0.19650218    -0.29400
H877        H  0.33021327  0.59944819  0.15602212     0.14800
H878        H  0.35235882  0.53744438  0.20414060     0.15400
C879        C  0.18130104  0.56223937  0.17797445    -0.14200
C880        C  0.15016429  0.56701823  0.17793085    -0.29400
H881        H  0.19505101  0.57115802  0.20914575     0.14800
H882        H  0.13654187  0.55929485  0.14576926     0.15400
C883        C  0.15245810  0.55122373  0.34297539    -0.14200
C884        C  0.15251452  0.55558427  0.29226886    -0.29400
H885        H  0.13337654  0.56113592  0.36478413     0.14800
H886        H  0.16999262  0.54336385  0.27038110     0.15400
C887        C  0.35753753  0.92527353  0.17450252    -0.14200
C888        C  0.33453431  0.94645899  0.18268670    -0.29400
H889        H  0.36253217  0.91998336  0.13490013     0.14800
H890        H  0.32897411  0.95472519  0.22031610     0.15400
C891        C  0.34947238  0.92767180  0.34156018    -0.14200
C892        C  0.34599884  0.91857779  0.29320593    -0.29400
H893        H  0.37217029  0.92432730  0.35875259     0.14800
H894        H  0.32286791  0.91915973  0.27714868     0.15400
C895        C  0.16312499  0.91981371  0.30290309    -0.14200
C896        C  0.18002324  0.90866952  0.34282125    -0.29400
H897        H  0.16533674  0.94425510  0.29149938     0.14800
H898        H  0.17798086  0.88422965  0.35398487     0.15400
C899        C  0.18395022  0.93104045  0.18523562    -0.14200
C900        C  0.15452068  0.92003524  0.18240904    -0.29400
H901        H  0.19704729  0.92790272  0.21999061     0.14800
H902        H  0.14259818  0.92280111  0.14631190     0.15400
C903        C  0.17714378  0.80074020  0.32965830    -0.11000
C904        C  0.16448745  0.81951831  0.30339318    -0.12600
C905        C  0.17976987  0.80527494  0.16535849    -0.11000
C906        C  0.16516391  0.82154773  0.19288992    -0.12600
C907        C  0.33685186  0.82831971  0.28886420    -0.11000
C908        C  0.31988548  0.81295908  0.31575240    -0.12600
C909        C  0.31786332  0.82702174  0.15169507    -0.11000
C910        C  0.33686908  0.83759791  0.17862118    -0.12600
C911        C  0.34633117  0.66044533  0.30437173    -0.11000
C912        C  0.33122854  0.67732598  0.32996096    -0.12600
C913        C  0.33505602  0.68173635  0.16748261    -0.11000
C914        C  0.34751476  0.66294930  0.19426128    -0.12600
C915        C  0.19462074  0.65676935  0.34622243    -0.11000
C916        C  0.17782059  0.64374545  0.31781536    -0.12600
C917        C  0.18166004  0.65603812  0.20894324    -0.11000
C918        C  0.19962459  0.67094902  0.18379137    -0.12600
O919        O  0.20982674  0.67530435  0.59629105    -0.73100
O920        O  0.23319949  0.70969052  0.64982439    -0.52000
C921        C  0.21599541  0.68586524  0.64057770     0.80700
O922        O  0.32472760  0.68835313  0.91445040    -0.57700
O923        O  0.29178192  0.70854684  0.85476209    -0.50700
C924        C  0.31506158  0.69205905  0.86879992     0.72700
O925        O  0.32988416  0.69552676  0.58089019    -0.72200
O926        O  0.29908649  0.71878464  0.64092483    -0.52800
C927        C  0.32175299  0.70149467  0.62682719     0.78700
O928        O  0.20868290  0.66357903  0.93079812    -0.57400
O929        O  0.22579659  0.69577708  0.86592327    -0.50500
C930        C  0.21165421  0.67163327  0.88391697     0.75300
Zr931      Zr  0.22186205  0.68875964  0.50849126     2.54700
O932        O  0.24065362  0.63558059  0.52030503    -0.77900
O933        O  0.16766131  0.66992742  0.01148949    -0.91300
Zr934      Zr  0.31152915  0.70739393  0.49630997     2.64700
O935        O  0.32855460  0.65294707  0.49868586    -0.96600
O936        O  0.36334912  0.72844494  0.98873462    -0.78400
O937        O  0.26857551  0.69847256  0.55148415    -0.81700
O938        O  0.26534639  0.69347144  0.95582371    -2.16400
O939        O  0.18531603  0.78949138  0.91261349    -0.65100
O940        O  0.21634463  0.76560324  0.85353004    -0.49700
C941        C  0.19422209  0.78392011  0.86687687     0.73700
O942        O  0.31155595  0.81556548  0.56981515    -0.58000
O943        O  0.29108617  0.78500358  0.63400581    -0.50000
C944        C  0.30817715  0.80725463  0.61664185     0.75500
O945        O  0.30427993  0.80835607  0.90212238    -0.69400
O946        O  0.28251373  0.77357830  0.84749585    -0.48100
C947        C  0.29925802  0.79754106  0.85774729     0.76800
O948        O  0.19177135  0.79771844  0.58186319    -0.64700
O949        O  0.22429836  0.77670160  0.64151625    -0.51900
C950        C  0.20148820  0.79370549  0.62734783     0.75200
Zr951      Zr  0.20140741  0.77619685  0.99821703     2.77500
O952        O  0.18495867  0.83295956  0.49330388    -0.95500
O953        O  0.14914674  0.75513679  0.00244776    -0.76300
Zr954      Zr  0.29075943  0.79666965  0.98940348     2.70100
O955        O  0.27175107  0.85000012  0.98003115    -0.77600
O956        O  0.34359881  0.82398794  0.48495531    -0.96600
Zr957      Zr  0.26024918  0.74624891  0.59368067     2.21500
Zr958      Zr  0.25437307  0.73767192  0.90288916     2.11100
O959        O  0.24507414  0.78564447  0.94494919    -2.45300
O960        O  0.24948350  0.79136338  0.54273879    -0.77400
O961        O  0.20956009  0.72879841  0.95491107    -0.69600
O962        O  0.30482405  0.75431416  0.54078577    -2.30500
O963        O  0.21273694  0.73574764  0.55223604    -2.26700
O964        O  0.30122952  0.74998484  0.94485069    -0.71300
H965        H  0.26843112  0.67463279  0.93637969     0.80700
H966        H  0.32342311  0.75788766  0.56020823     0.81800
H967        H  0.24154133  0.80270953  0.92129916     0.84000
H968        H  0.19564244  0.73343602  0.57614347     0.81600
H969        H  0.36589078  0.73061152  0.44560251     0.44600
H970        H  0.35442174  0.80345200  0.95926833     0.43600
H971        H  0.27611223  0.85634175  0.44212571     0.43300
H972        H  0.19098436  0.83988036  0.96773554     0.41200
H973        H  0.14562511  0.74875590  0.96685151     0.44400
H974        H  0.15751922  0.68982204  0.53625130     0.39100
H975        H  0.25313506  0.63600520  0.55181001     0.45300
H976        H  0.35318560  0.65465407  0.00523478     0.41700
H977        H  0.16003345  0.82839968  0.99406641     0.46600
H978        H  0.16572914  0.65452287  0.52776726     0.45300
H979        H  0.31503156  0.64274059  0.52476685     0.45400
H980        H  0.34263655  0.83724174  0.97188235     0.45800
O981        O  0.19685216  0.93401061  0.59632956    -0.73100
O982        O  0.22591689  0.96395138  0.64968424    -0.52000
C983        C  0.20401213  0.94399089  0.64099203     0.80700
O984        O  0.32482957  0.94369714  0.92560441    -0.57700
O985        O  0.29630974  0.96073985  0.85753114    -0.50700
C986        C  0.31991472  0.94622230  0.87749894     0.72700
O987        O  0.32745535  0.94629663  0.59263187    -0.72200
O988        O  0.29696133  0.97334206  0.64827222    -0.52800
C989        C  0.32055209  0.95604678  0.63782815     0.78700
O990        O  0.19465412  0.93132530  0.92167170    -0.57400
O991        O  0.21968775  0.95631263  0.85522226    -0.50500
C992        C  0.19953917  0.93643361  0.87364157     0.75300
Zr993      Zr  0.21598557  0.94020240  0.50791600     2.54700
O994        O  0.22667333  0.88503009  0.52246666    -0.77900
O995        O  0.15591759  0.93946068  0.00777818    -0.91300
Zr996      Zr  0.30729819  0.95009688  0.50492911     2.64700
O997        O  0.30899982  0.89356631  0.51442031    -0.96300
O998        O  0.35873181  0.96453143  0.00631843    -0.78400
O999        O  0.26196005  0.94753074  0.55679693    -0.81700
O1000       O  0.25823114  0.95001250  0.95501423    -2.16400
O1001       O  0.18101540  0.54262072  0.92244955    -0.65100
O1002       O  0.21121749  0.52732532  0.85510012    -0.49700
C1003       C  0.18607602  0.53960216  0.87447580     0.73700
O1004       O  0.31376214  0.57012839  0.56331014    -0.58000
O1005       O  0.29623486  0.54067676  0.63108356    -0.50000
C1006       C  0.31328223  0.56255338  0.61086789     0.75500
O1007       O  0.32413279  0.54946604  0.91804204    -0.69400
O1008       O  0.29490308  0.53111708  0.85263340    -0.48100
C1009       C  0.31961086  0.54468601  0.87063877     0.76800
O1010       O  0.18865078  0.55710492  0.58700139    -0.64700
O1011       O  0.22449149  0.53845265  0.64352329    -0.51900
C1012       C  0.19971950  0.55381465  0.63219830     0.75200
Zr1013     Zr  0.20573425  0.53702217  0.00453573     2.77500
O1014       O  0.19638762  0.59746693  0.48461555    -0.95500
O1015       O  0.14763279  0.53456155  0.51659031    -0.76300
Zr1016     Zr  0.29497997  0.54946145  0.99693363     2.70100
O1017       O  0.28052643  0.60270900  0.97361287    -0.77600
O1018       O  0.34847710  0.56602341  0.48507423    -0.96600
Zr1019     Zr  0.25829446  0.99806676  0.59467105     2.21500
Zr1020     Zr  0.25503455  0.99420857  0.89632720     2.11100
O1021       O  0.24898658  0.54458109  0.94781720    -2.45300
O1022       O  0.25134937  0.54943105  0.54208731    -0.77400
O1023       O  0.20902572  0.99143719  0.94886633    -0.69600
O1024       O  0.30359111  0.99979518  0.54190689    -2.30500
O1025       O  0.21172250  0.98948946  0.54749401    -2.26700
O1026       O  0.29854485  0.00104275  0.95146060    -0.71300
H1027       H  0.26040412  0.93070387  0.93647293     0.80700
H1028       H  0.32216994  0.00326594  0.56143894     0.81800
H1029       H  0.24597411  0.56262399  0.92599261     0.84000
H1030       H  0.19350195  0.98897202  0.56922756     0.81600
H1031       H  0.36909799  0.97297550  0.51688921     0.44600
H1032       H  0.36113270  0.55688320  0.99862567     0.43600
H1033       H  0.28967703  0.60657869  0.42329771     0.43300
H1034       H  0.20386587  0.59850768  0.96139561     0.41200
H1035       H  0.14665398  0.51430250  0.04013263     0.44400
H1036       H  0.15105542  0.94475767  0.53220877     0.39100
H1037       H  0.21968218  0.88064629  0.55789434     0.45300
H1038       H  0.32747462  0.89639617  0.02083199     0.41700
H1039       H  0.17567156  0.59615308  0.99945752     0.46600
H1040       H  0.15797726  0.90889557  0.52605939     0.45300
H1041       H  0.29867834  0.88928028  0.54768064     0.45400
H1042       H  0.34775642  0.58997340  0.98413305     0.45800
O1043       O  0.44133555  0.80589096  0.58627126    -0.73100
O1044       O  0.47386401  0.78646759  0.64712825    -0.52000
C1045       C  0.45076913  0.80357578  0.63269224     0.80700
O1046       O  0.44645997  0.67294742  0.92780932    -0.57700
O1047       O  0.46960160  0.69723153  0.85926743    -0.50700
C1048       C  0.45082627  0.67671703  0.87943697     0.72700
O1049       O  0.45315738  0.68088696  0.59975963    -0.72200
O1050       O  0.47701928  0.71501544  0.65328094    -0.52800
C1051       C  0.46025668  0.69054668  0.64456485     0.78700
O1052       O  0.44819957  0.80504720  0.91469389    -0.57400
O1053       O  0.46871798  0.77255584  0.85419908    -0.50500
C1054       C  0.45249983  0.79651573  0.86780889     0.75300
Zr1055     Zr  0.45277364  0.78795873  0.49950566     2.54700
O1056       O  0.39726375  0.77957980  0.51118708    -0.77900
O1057       O  0.45742041  0.84223212  0.99959741    -0.91300
Zr1058     Zr  0.46089973  0.69632829  0.51021726     2.64700
O1059       O  0.40504144  0.68983299  0.51668767    -0.96300
O1060       O  0.46390283  0.63601829  0.00792184    -0.78400
O1061       O  0.45826364  0.74426360  0.55525233    -0.81700
O1062       O  0.46013493  0.73759333  0.95458251    -2.16400
O1063       O  0.05069679  0.81163677  0.90013114    -0.65100
O1064       O  0.02168804  0.78317228  0.84495867    -0.49700
C1065       C  0.04088134  0.80553775  0.85512938     0.73700
O1066       O  0.06949583  0.68189613  0.56898261    -0.58000
O1067       O  0.04958628  0.70800352  0.63758625    -0.50000
C1068       C  0.06639129  0.68620048  0.61724577     0.75500
O1069       O  0.05509595  0.68116638  0.90027834    -0.69400
O1070       O  0.02403442  0.70810206  0.84519378    -0.48100
C1071       C  0.04426961  0.68657591  0.85544354     0.76800
O1072       O  0.06140608  0.81572359  0.56837980    -0.64700
O1073       O  0.04568916  0.78603118  0.63704757    -0.51900
C1074       C  0.05969521  0.81009008  0.61667653     0.75200
Zr1075     Zr  0.04550256  0.79238550  0.98754338     2.77500
O1076       O  0.10129224  0.79480787  0.97225158    -0.95500
O1077       O  0.04019517  0.84911745  0.98508995    -0.76300
Zr1078     Zr  0.05025758  0.70069213  0.98715945     2.70100
O1079       O  0.10577204  0.70688674  0.97350495    -0.77600
O1080       O  0.06228497  0.64674439  0.48492727    -0.96600
Zr1081     Zr  0.01181172  0.74522761  0.60031686     2.21500
Zr1082     Zr  0.99422064  0.74445703  0.89921892     2.11100
O1083       O  0.04477063  0.74673567  0.93660960    -2.45300
O1084       O  0.05357669  0.74845783  0.53876549    -0.77400
O1085       O  0.99569158  0.79008317  0.95073283    -0.69600
O1086       O  0.01036336  0.69895876  0.54937857    -2.30500
O1087       O  0.00340392  0.79118772  0.54926476    -2.26700
O1088       O  0.00055957  0.69812444  0.94985873    -0.71300
H1089       H  0.44090139  0.73631735  0.93591792     0.80700
H1090       H  0.01276874  0.68040472  0.57030984     0.81800
H1091       H  0.06087229  0.74766698  0.91066364     0.84000
H1092       H  0.00370172  0.80981885  0.56971176     0.81600
H1093       H  0.44816881  0.63148846  0.52729308     0.44600
H1094       H  0.03747868  0.63619022  0.96768071     0.43600
H1095       H  0.11006200  0.71178735  0.43903758     0.43300
H1096       H  0.10423692  0.78615402  0.93769304     0.41200
H1097       H  0.02134595  0.85300299  0.96454949     0.44400
H1098       H  0.46351081  0.85374676  0.50579399     0.39100
H1099       H  0.39470043  0.77266473  0.54714548     0.45300
H1100       H  0.40451776  0.67344654  0.03345441     0.41700
H1101       H  0.10571291  0.81745250  0.96790995     0.46600
H1102       H  0.42764541  0.84912957  0.51479916     0.45300
H1103       H  0.40027957  0.68839543  0.55362680     0.45400
H1104       H  0.07387551  0.63924695  0.96735473     0.45800
C1105       C  0.13221459  0.62304082  0.70323523     0.47700
H1106       H  0.13499997  0.62760172  0.66173836    -0.01300
C1107       C  0.12919675  0.61204223  0.80013214     0.47700
H1108       H  0.12804118  0.60844018  0.84199030    -0.01300
C1109       C  0.15812543  0.63863134  0.73314532    -0.15000
C1110       C  0.10213291  0.63630007  0.72772427    -0.14800
C1111       C  0.13584781  0.58801890  0.71749637    -0.15200
C1112       C  0.15631522  0.63266035  0.78390132    -0.15100
C1113       C  0.10043467  0.63032047  0.77970464    -0.14700
C1114       C  0.13622901  0.58194645  0.76944826    -0.15000
C1115       C  0.38617581  0.61870256  0.69395757     0.47700
H1116       H  0.38690655  0.62142474  0.65175311    -0.01300
C1117       C  0.38421201  0.61356716  0.79247426     0.47700
H1118       H  0.38302267  0.61120606  0.83455888    -0.01300
C1119       C  0.36536401  0.64267579  0.71988795    -0.15000
C1120       C  0.37275402  0.58705203  0.71268919    -0.14800
C1121       C  0.41786011  0.62468636  0.71872236    -0.15200
C1122       C  0.36392636  0.63965521  0.77133384    -0.15100
C1123       C  0.37121367  0.58416405  0.76486465    -0.14700
C1124       C  0.41701193  0.62339484  0.77144330    -0.15000
C1125       C  0.12885979  0.86880621  0.70005264     0.47700
H1126       H  0.12860207  0.86807904  0.65776916    -0.01300
C1127       C  0.13220857  0.87007289  0.79832939     0.47700
H1128       H  0.13389596  0.87016708  0.84054550    -0.01300
C1129       C  0.15242416  0.84624388  0.72250056    -0.15000
C1130       C  0.13989768  0.90076207  0.72032565    -0.14800
C1131       C  0.09818513  0.85763135  0.72636541    -0.15200
C1132       C  0.15371460  0.84621144  0.77393619    -0.15100
C1133       C  0.14248585  0.90142113  0.77278936    -0.14700
C1134       C  0.09973284  0.85943528  0.77915318    -0.15000
C1135       C  0.37613288  0.87184546  0.79937163     0.47700
H1136       H  0.37083370  0.87130809  0.84090836    -0.01300
C1137       C  0.38776792  0.87120002  0.70262673     0.47700
H1138       H  0.39256061  0.87071048  0.66091646    -0.01300
C1139       C  0.35593398  0.84889208  0.76988995    -0.15000
C1140       C  0.36855483  0.90366796  0.77244240    -0.14800
C1141       C  0.40974938  0.86098911  0.78651555    -0.15200
C1142       C  0.36188524  0.84914924  0.71912089    -0.15100
C1143       C  0.37516110  0.90312841  0.72040834    -0.14700
C1144       C  0.41562916  0.85979097  0.73455420    -0.15000
C1145       C  0.07424494  0.83469739  0.64881364    -0.14200
C1146       C  0.07961392  0.83278767  0.69929589    -0.29400
H1147       H  0.08108307  0.85605619  0.62876047     0.14800
H1148       H  0.07383505  0.81107167  0.71897598     0.15400
C1149       C  0.08026821  0.84172597  0.81815696    -0.14200
C1150       C  0.05336320  0.82554834  0.81238369    -0.29400
H1151       H  0.09076108  0.84053860  0.85560843     0.14800
H1152       H  0.04075015  0.82612442  0.77691011     0.15400
C1153       C  0.08218288  0.64867311  0.81892444    -0.14200
C1154       C  0.05628098  0.66650549  0.81299237    -0.29400
H1155       H  0.09253442  0.64836318  0.85651604     0.14800
H1156       H  0.04365563  0.66664789  0.77750560     0.15400
C1157       C  0.08218927  0.66212763  0.64919840    -0.14200
C1158       C  0.08499729  0.66217436  0.70024384    -0.29400
H1159       H  0.09090493  0.64207590  0.62846952     0.14800
H1160       H  0.07681680  0.68245224  0.72067457     0.15400
C1161       C  0.44139818  0.64133364  0.68584617    -0.14200
C1162       C  0.44730530  0.67242374  0.68888443    -0.29400
H1163       H  0.44795342  0.62943433  0.65100119     0.14800
H1164       H  0.44013165  0.68526322  0.72245546     0.15400
C1165       C  0.43077342  0.65680369  0.84655631    -0.14200
C1166       C  0.43964026  0.64214444  0.80313921    -0.29400
H1167       H  0.40729187  0.65345748  0.86094169     0.14800
H1168       H  0.46326759  0.64547440  0.78904398     0.15400
C1169       C  0.43766136  0.81463380  0.82519820    -0.14200
C1170       C  0.42793994  0.84471244  0.82799866    -0.29400
H1171       H  0.43463883  0.80223353  0.78975412     0.14800
H1172       H  0.42965835  0.85658903  0.86422467     0.15400
C1173       C  0.43099463  0.82044273  0.67024558    -0.14200
C1174       C  0.43982916  0.83932771  0.70896395    -0.29400
H1175       H  0.40651380  0.81931056  0.66097890     0.14800
H1176       H  0.46401766  0.84056767  0.72029551     0.15400
C1177       C  0.34524028  0.56503302  0.78943032    -0.14200
C1178       C  0.34623533  0.55613951  0.83842621    -0.29400
H1179       H  0.32396935  0.56088081  0.76851350     0.14800
H1180       H  0.36769432  0.56070666  0.85866980     0.15400
C1181       C  0.33434846  0.58081185  0.64326413    -0.14200
C1182       C  0.35230789  0.56771100  0.67944691    -0.29400
H1183       H  0.33642919  0.60564315  0.63455481     0.14800
H1184       H  0.35008890  0.54279214  0.68772436     0.15400
C1185       C  0.18310121  0.56919665  0.67427592    -0.14200
C1186       C  0.15189694  0.56826129  0.67924638    -0.29400
H1187       H  0.19689524  0.58132394  0.70241506     0.14800
H1188       H  0.13792491  0.55617460  0.65134688     0.15400
C1189       C  0.16004350  0.55308245  0.84328630    -0.14200
C1190       C  0.15868297  0.55794914  0.79244744    -0.29400
H1191       H  0.14080116  0.56187530  0.86597517     0.14800
H1192       H  0.17665534  0.54751527  0.76900747     0.15400
C1193       C  0.35972346  0.92159973  0.67813549    -0.14200
C1194       C  0.34062962  0.94647588  0.68141808    -0.29400
H1195       H  0.36192482  0.91127386  0.64063888     0.14800
H1196       H  0.33816462  0.95928619  0.71647540     0.15400
C1197       C  0.34483135  0.93128029  0.84584330    -0.14200
C1198       C  0.34338899  0.92349126  0.79641332    -0.29400
H1199       H  0.36586367  0.92485032  0.86615957     0.14800
H1200       H  0.32198317  0.92793766  0.77612862     0.15400
C1201       C  0.16217308  0.92487189  0.80116563    -0.14200
C1202       C  0.18157891  0.91560687  0.83906474    -0.29400
H1203       H  0.16117556  0.94945233  0.79019024     0.14800
H1204       H  0.18245047  0.89091910  0.84921391     0.15400
C1205       C  0.18620059  0.93108868  0.68567242    -0.14200
C1206       C  0.15608216  0.92197595  0.68237393    -0.29400
H1207       H  0.19883012  0.92751595  0.72079984     0.14800
H1208       H  0.14457100  0.92502178  0.64595965     0.15400
C1209       C  0.18008062  0.80230797  0.82864252    -0.11000
C1210       C  0.16886023  0.82221378  0.80246732    -0.12600
C1211       C  0.18538373  0.81010116  0.66483578    -0.11000
C1212       C  0.17032261  0.82600906  0.69210267    -0.12600
C1213       C  0.33250384  0.82967760  0.79332485    -0.11000
C1214       C  0.31496698  0.81361710  0.81770841    -0.12600
C1215       C  0.32635568  0.82285448  0.65239732    -0.11000
C1216       C  0.34281089  0.83421975  0.68314730    -0.12600
C1217       C  0.34608332  0.65959738  0.80295169    -0.11000
C1218       C  0.33140054  0.67555801  0.83107858    -0.12600
C1219       C  0.33818274  0.68554473  0.66509073    -0.11000
C1220       C  0.35069952  0.66717143  0.69230923    -0.12600
C1221       C  0.19598426  0.65334479  0.84877626    -0.11000
C1222       C  0.17886488  0.64241995  0.81881989    -0.12600
C1223       C  0.18265923  0.65623983  0.70883861    -0.11000
C1224       C  0.20059798  0.67041590  0.68197981    -0.12600
O1225       O  0.70075484  0.17916937  0.09347541    -0.73100
O1226       O  0.72297649  0.21348308  0.14836156    -0.52000
C1227       C  0.70572158  0.18988234  0.13799307     0.80700
O1228       O  0.82089310  0.19818922  0.41308158    -0.57700
O1229       O  0.78703303  0.21688800  0.35362617    -0.50700
C1230       C  0.81101021  0.20147091  0.36758183     0.72700
O1231       O  0.81999995  0.19713209  0.08341180    -0.72200
O1232       O  0.78951140  0.22111492  0.14298934    -0.52800
C1233       C  0.81149911  0.20284290  0.12920253     0.78700
O1234       O  0.69773437  0.17844168  0.42645900    -0.57400
O1235       O  0.71999247  0.20760386  0.36217835    -0.50500
C1236       C  0.70212960  0.18613543  0.37976679     0.75300
Zr1237     Zr  0.71594465  0.19191896  0.00699609     2.54700
O1238       O  0.73647585  0.13986423  0.02343699    -0.77900
O1239       O  0.66487704  0.17126275  0.51068314    -0.91300
Zr1240     Zr  0.80565752  0.21217586  0.99806351     2.64700
O1241       O  0.82741646  0.15948498  0.99820081    -0.96600
O1242       O  0.85793922  0.23723812  0.49183076    -0.78400
O1243       O  0.76194914  0.20234194  0.05147450    -0.81700
O1244       O  0.76057788  0.20127912  0.45340982    -2.16400
O1245       O  0.67881081  0.29402859  0.41179567    -0.65100
O1246       O  0.71242364  0.27405730  0.35270561    -0.49700
C1247       C  0.68831045  0.28956361  0.36610080     0.73700
O1248       O  0.80163770  0.32029232  0.07243342    -0.58000
O1249       O  0.78144635  0.28918823  0.13617155    -0.50000
C1250       C  0.79815081  0.31186865  0.11911419     0.75500
O1251       O  0.80649853  0.31109140  0.40357629    -0.69400
O1252       O  0.77986568  0.28077170  0.34778204    -0.48100
C1253       C  0.79995132  0.30164582  0.35883557     0.76800
O1254       O  0.68408534  0.30205361  0.08041960    -0.64700
O1255       O  0.71508777  0.27981222  0.14111922    -0.51900
C1256       C  0.69296312  0.29754286  0.12632002     0.75200
Zr1257     Zr  0.69770247  0.28519998  0.49705105     2.77500
O1258       O  0.67521820  0.33523286  0.99181722    -0.95500
O1259       O  0.64422133  0.26795974  0.50800684    -0.76300
Zr1260     Zr  0.78709773  0.30458476  0.48963222     2.70100
O1261       O  0.76279609  0.35499884  0.47251559    -0.77600
O1262       O  0.83581669  0.32834047  0.99412103    -0.96600
Zr1263     Zr  0.75196885  0.24972535  0.09433807     2.21500
Zr1264     Zr  0.75034091  0.24641070  0.40231248     2.11100
O1265       O  0.74141397  0.29459280  0.44387162    -2.45300
O1266       O  0.74130867  0.29469944  0.04316374    -0.77400
O1267       O  0.70527941  0.23791409  0.45348259    -0.69600
O1268       O  0.79718714  0.25867768  0.04317737    -2.30500
O1269       O  0.70531986  0.23869859  0.05075207    -2.26700
O1270       O  0.79708652  0.25789025  0.44504694    -0.71300
H1271       H  0.76337281  0.18275515  0.43313528     0.80700
H1272       H  0.81529171  0.26256902  0.06367561     0.81800
H1273       H  0.73773283  0.31139683  0.41975965     0.84000
H1274       H  0.68790715  0.23621248  0.07392529     0.81600
H1275       H  0.86331585  0.23525445  0.03227959     0.44600
H1276       H  0.85165802  0.31728434  0.47181342     0.43600
H1277       H  0.76896963  0.35998544  0.94163371     0.43300
H1278       H  0.68490058  0.34634341  0.45501799     0.41200
H1279       H  0.64093688  0.26589617  0.54528403     0.44400
H1280       H  0.65138596  0.18681003  0.03223921     0.39100
H1281       H  0.74456694  0.14036615  0.05862260     0.45300
H1282       H  0.81510312  0.14876485  0.48017012     0.41700
H1283       H  0.65789554  0.33872199  0.49391278     0.46600
H1284       H  0.66270544  0.15261117  0.02183951     0.45300
H1285       H  0.81500383  0.14763666  0.02393858     0.45400
H1286       H  0.83475019  0.34966617  0.46664985     0.45800
O1287       O  0.69003694  0.44062784  0.09972697    -0.73100
O1288       O  0.71962856  0.46989543  0.15319078    -0.52000
C1289       C  0.69767656  0.45001692  0.14458817     0.80700
O1290       O  0.82085808  0.43641912  0.42719375    -0.57700
O1291       O  0.79199259  0.45347873  0.35953334    -0.50700
C1292       C  0.81577112  0.43902370  0.37911229     0.72700
O1293       O  0.81944973  0.44792720  0.09612938    -0.72200
O1294       O  0.79042101  0.47678964  0.15141337    -0.52800
C1295       C  0.81334341  0.45845834  0.14104726     0.78700
O1296       O  0.68880415  0.42898380  0.42986316    -0.57400
O1297       O  0.71274601  0.45202700  0.36071522    -0.50500
C1298       C  0.69225579  0.43354112  0.38135973     0.75300
Zr1299     Zr  0.70793800  0.44682306  0.01031080     2.54700
O1300       O  0.71469775  0.39074007  0.02223870    -0.77900
O1301       O  0.65216884  0.44094688  0.51365701    -0.91300
Zr1302     Zr  0.79929383  0.45028203  0.00895809     2.64700
O1303       O  0.79584033  0.39434305  0.02547615    -0.96300
O1304       O  0.85597133  0.44936423  0.50718641    -0.78400
O1305       O  0.75358823  0.45171784  0.06013602    -0.81700
O1306       O  0.75380379  0.44435528  0.45934852    -2.16400
O1307       O  0.68480951  0.03776680  0.40740707    -0.65100
O1308       O  0.71503363  0.01163399  0.34998687    -0.49700
C1309       C  0.69169292  0.02935465  0.36159695     0.73700
O1310       O  0.81087558  0.06758156  0.07013093    -0.58000
O1311       O  0.78909835  0.04094964  0.13778858    -0.50000
C1312       C  0.80803015  0.06136557  0.11839636     0.75500
O1313       O  0.81577238  0.04891633  0.40126344    -0.69400
O1314       O  0.78664983  0.01978297  0.34690005    -0.48100
C1315       C  0.80829065  0.03990009  0.35613374     0.76800
O1316       O  0.68106632  0.05303501  0.07604431    -0.64700
O1317       O  0.71188693  0.03649286  0.14139265    -0.51900
C1318       C  0.68727088  0.05024399  0.12361069     0.75200
Zr1319     Zr  0.70472377  0.03232532  0.49440993     2.77500
O1320       O  0.70316949  0.09556377  0.97721468    -0.95500
O1321       O  0.64556292  0.04205996  0.99766082    -0.76300
Zr1322     Zr  0.79550314  0.04286079  0.48923279     2.70100
O1323       O  0.77873540  0.09656992  0.47548651    -0.77600
O1324       O  0.84790946  0.06164209  0.98649784    -0.96600
Zr1325     Zr  0.75234488  0.50270371  0.09692604     2.21500
Zr1326     Zr  0.75105970  0.48734096  0.39850050     2.11100
O1327       O  0.74980333  0.03464060  0.44101430    -2.45300
O1328       O  0.74781582  0.04882852  0.04116863    -0.77400
O1329       O  0.70632017  0.48920695  0.45292390    -0.69600
O1330       O  0.79851292  0.50038680  0.04556917    -2.30500
O1331       O  0.70587783  0.49691905  0.04815358    -2.26700
O1332       O  0.79710804  0.49298154  0.44871840    -0.71300
H1333       H  0.75459091  0.42454342  0.44209193     0.80700
H1334       H  0.81707295  0.50289791  0.06547382     0.81800
H1335       H  0.74769858  0.05106472  0.41570568     0.84000
H1336       H  0.68759905  0.49827630  0.06963170     0.81600
H1337       H  0.86355291  0.46658233  0.00473267     0.44600
H1338       H  0.86119026  0.04352715  0.47070368     0.43600
H1339       H  0.78794886  0.10799825  0.93522958     0.43300
H1340       H  0.70904310  0.09300057  0.44825361     0.41200
H1341       H  0.64207385  0.01475203  0.47308253     0.44400
H1342       H  0.64379951  0.45372785  0.03847323     0.39100
H1343       H  0.72300208  0.38834436  0.05712502     0.45300
H1344       H  0.81874879  0.38937034  0.53115387     0.41700
H1345       H  0.68236414  0.09495382  0.48904591     0.46600
H1346       H  0.64858606  0.41813696  0.02653156     0.45300
H1347       H  0.78256240  0.39239651  0.05638707     0.45400
H1348       H  0.85077593  0.07877924  0.47071720     0.45800
O1349       O  0.94957343  0.30698279  0.09945747    -0.73100
O1350       O  0.97832180  0.27705719  0.15420355    -0.52000
C1351       C  0.95854733  0.29916488  0.14466572     0.80700
O1352       O  0.94755384  0.17485674  0.42907682    -0.57700
O1353       O  0.96197780  0.20522209  0.36059923    -0.50700
C1354       C  0.94920079  0.18040969  0.38074951     0.72700
O1355       O  0.95878121  0.17611240  0.09763678    -0.72200
O1356       O  0.98625737  0.20529314  0.15396067    -0.52800
C1357       C  0.96815640  0.18234509  0.14298657     0.78700
O1358       O  0.93705000  0.30942219  0.42829241    -0.57400
O1359       O  0.95941542  0.28459369  0.36039533    -0.50500
C1360       C  0.94108856  0.30525169  0.38008734     0.75300
Zr1361     Zr  0.95722192  0.28827449  0.01179174     2.54700
O1362       O  0.90167144  0.28150898  0.02519218    -0.77900
O1363       O  0.95032850  0.34723784  0.51047526    -0.91300
Zr1364     Zr  0.96294951  0.19587259  0.00982168     2.64700
O1365       O  0.90740309  0.19150660  0.02604483    -0.96300
O1366       O  0.95918696  0.14155187  0.51824037    -0.78400
O1367       O  0.96254048  0.24151042  0.06120868    -0.81700
O1368       O  0.95272164  0.24436844  0.45998190    -2.16400
O1369       O  0.54887405  0.31349142  0.39803297    -0.65100
O1370       O  0.52431082  0.28009479  0.34417076    -0.49700
C1371       C  0.54191404  0.30392326  0.35308567     0.73700
O1372       O  0.57051864  0.18299368  0.07445015    -0.58000
O1373       O  0.54643732  0.20840051  0.14013836    -0.50000
C1374       C  0.56554755  0.18764225  0.12235248     0.75500
O1375       O  0.55639606  0.18369553  0.40337335    -0.69400
O1376       O  0.52862671  0.21262958  0.34610980    -0.48100
C1377       C  0.54795809  0.19074032  0.35740658     0.76800
O1378       O  0.56431434  0.31146043  0.06958015    -0.64700
O1379       O  0.54253431  0.28557837  0.13780996    -0.51900
C1380       C  0.56023569  0.30702041  0.11792606     0.75200
Zr1381     Zr  0.54063526  0.29721334  0.48721882     2.77500
O1382       O  0.59633676  0.30623909  0.47924188    -0.95500
O1383       O  0.53071312  0.35324752  0.48094562    -0.76300
Zr1384     Zr  0.55141835  0.20545654  0.49053480     2.70100
O1385       O  0.60577311  0.21945988  0.47831051    -0.77600
O1386       O  0.56315092  0.14485712  0.99902085    -0.96600
Zr1387     Zr  0.50973398  0.24542906  0.09856678     2.21500
Zr1388     Zr  0.49432403  0.24385062  0.39898309     2.11100
O1389       O  0.54380953  0.25048237  0.43894799    -2.45300
O1390       O  0.55293684  0.24744833  0.03974913    -0.77400
O1391       O  0.49199386  0.29094653  0.44711007    -0.69600
O1392       O  0.50929204  0.19856651  0.04929059    -2.30500
O1393       O  0.50239626  0.29131196  0.04642218    -2.26700
O1394       O  0.50278535  0.19861303  0.45138192    -0.71300
H1395       H  0.93290379  0.24337821  0.44293986     0.80700
H1396       H  0.51205260  0.18017059  0.07048169     0.81800
H1397       H  0.56044907  0.25195509  0.41401315     0.84000
H1398       H  0.50285673  0.31004820  0.06659923     0.81600
H1399       H  0.98752346  0.13497524  0.99192992     0.44600
H1400       H  0.55217892  0.13918053  0.47542114     0.43600
H1401       H  0.60864355  0.20522641  0.93507187     0.43300
H1402       H  0.60215264  0.29764544  0.44559600     0.41200
H1403       H  0.50929270  0.35483530  0.46762755     0.44400
H1404       H  0.96804904  0.35245367  0.03680531     0.39100
H1405       H  0.89489842  0.30084346  0.04251019     0.45300
H1406       H  0.89845433  0.17768538  0.52749283     0.41700
H1407       H  0.59837029  0.32922046  0.47473827     0.46600
H1408       H  0.93310492  0.35028502  0.02046397     0.45300
H1409       H  0.90459616  0.19854936  0.06160905     0.45400
H1410       H  0.58705533  0.15008632  0.47162658     0.45800
C1411       C  0.62759179  0.11879373  0.20897909     0.47700
H1412       H  0.62950169  0.11892719  0.16680745    -0.01300
C1413       C  0.62353542  0.11831645  0.30730873     0.47700
H1414       H  0.62219814  0.11921295  0.34966153    -0.01300
C1415       C  0.64904648  0.14227179  0.23362106    -0.15000
C1416       C  0.59492993  0.12930156  0.22927574    -0.14800
C1417       C  0.63885097  0.08719353  0.23416034    -0.15200
C1418       C  0.64666025  0.14190135  0.28511560    -0.15100
C1419       C  0.59284949  0.12749932  0.28191452    -0.14700
C1420       C  0.63602391  0.08705715  0.28692385    -0.15000
C1421       C  0.87734472  0.12056765  0.19905175     0.47700
H1422       H  0.87618809  0.12091469  0.15681969    -0.01300
C1423       C  0.88030714  0.12126775  0.29726336     0.47700
H1424       H  0.88057559  0.12171890  0.33956352    -0.01300
C1425       C  0.85685198  0.14519365  0.22334666    -0.15000
C1426       C  0.86528790  0.08985420  0.22351516    -0.14800
C1427       C  0.91010654  0.12912177  0.21878494    -0.15200
C1428       C  0.85802715  0.14527098  0.27477650    -0.15100
C1429       C  0.86804556  0.08971615  0.27613558    -0.14700
C1430       C  0.91152901  0.13122273  0.27156497    -0.15000
C1431       C  0.62223640  0.37440088  0.19967967     0.47700
H1432       H  0.62287119  0.37547513  0.15737569    -0.01300
C1433       C  0.62255999  0.37287801  0.29831255     0.47700
H1434       H  0.62230836  0.37139970  0.34058996    -0.01300
C1435       C  0.64387601  0.34999831  0.22221119    -0.15000
C1436       C  0.63406669  0.40518605  0.22313152    -0.14800
C1437       C  0.59039784  0.36427826  0.22273733    -0.15200
C1438       C  0.64346093  0.34848559  0.27373683    -0.15100
C1439       C  0.63549646  0.40418017  0.27580807    -0.14700
C1440       C  0.59032325  0.36513436  0.27554593    -0.15000
C1441       C  0.87780893  0.37144401  0.29208650     0.47700
H1442       H  0.87509667  0.37049509  0.33407372    -0.01300
C1443       C  0.88325877  0.37361875  0.19398592     0.47700
H1444       H  0.88530212  0.37347711  0.15168191    -0.01300
C1445       C  0.85657982  0.34878852  0.26505195    -0.15000
C1446       C  0.86711838  0.40356319  0.26880948    -0.14800
C1447       C  0.91060661  0.36115720  0.27240111    -0.15200
C1448       C  0.85902578  0.35033741  0.21361244    -0.15100
C1449       C  0.87118890  0.40475341  0.21609246    -0.14700
C1450       C  0.91335313  0.36302235  0.21998071    -0.15000
C1451       C  0.57912313  0.32748189  0.15121610    -0.14200
C1452       C  0.56882000  0.34347466  0.19262368    -0.29400
H1453       H  0.60287720  0.33047507  0.13806474     0.14800
H1454       H  0.54489468  0.34041212  0.20538273     0.15400
C1455       C  0.56688437  0.35049694  0.31137008    -0.14200
C1456       C  0.55663867  0.32055458  0.30859749    -0.29400
H1457       H  0.56286177  0.36296044  0.34666306     0.14800
H1458       H  0.56149434  0.30686918  0.27490911     0.15400
C1459       C  0.56931439  0.14279933  0.31617072    -0.14200
C1460       C  0.56253584  0.17365443  0.31401054    -0.29400
H1461       H  0.56302006  0.12993712  0.35074249     0.14800
H1462       H  0.56945202  0.18743644  0.28077499     0.15400
C1463       C  0.58469500  0.16781816  0.15759783    -0.14200
C1464       C  0.57384830  0.15037830  0.19776324    -0.29400
H1465       H  0.60892192  0.16563162  0.14642804     0.14800
H1466       H  0.54953277  0.15242958  0.20884934     0.15400
C1467       C  0.93048393  0.14489131  0.17932095    -0.14200
C1468       C  0.95646186  0.16208778  0.18555613    -0.29400
H1469       H  0.92104507  0.14450999  0.14109894     0.14800
H1470       H  0.96831418  0.16296099  0.22166067     0.15400
C1471       C  0.93563202  0.15504911  0.34858280    -0.14200
C1472       C  0.92990579  0.15653975  0.29811799    -0.29400
H1473       H  0.92933032  0.13357265  0.36880188     0.14800
H1474       H  0.93476595  0.17840453  0.27818747     0.15400
C1475       C  0.92160078  0.32525838  0.34647864    -0.14200
C1476       C  0.93186378  0.34097681  0.30439767    -0.29400
H1477       H  0.89779083  0.32804054  0.35940721     0.14800
H1478       H  0.95584794  0.33793372  0.29204858     0.15400
C1479       C  0.94402179  0.31611162  0.18869749    -0.14200
C1480       C  0.93709032  0.34712184  0.18640993    -0.29400
H1481       H  0.93676892  0.30222639  0.22162862     0.14800
H1482       H  0.94384936  0.35997886  0.15207116     0.15400
C1483       C  0.85358227  0.06720936  0.31423960    -0.14200
C1484       C  0.82466567  0.05473897  0.31130338    -0.29400
H1485       H  0.86552596  0.06511193  0.35041903     0.14800
H1486       H  0.81145774  0.05724501  0.27656468     0.15400
C1487       C  0.82768978  0.08014629  0.15294407    -0.14200
C1488       C  0.84412662  0.06880252  0.19333756    -0.29400
H1489       H  0.82950480  0.10465017  0.14218539     0.14800
H1490       H  0.84195322  0.04426660  0.20416919     0.15400
C1491       C  0.66244475  0.06334108  0.15729088    -0.14200
C1492       C  0.66445701  0.06961107  0.20713858    -0.29400
H1493       H  0.64072618  0.06909642  0.13848511     0.14800
H1494       H  0.68628529  0.06516709  0.22623842     0.15400
C1495       C  0.67156994  0.04163671  0.31930144    -0.14200
C1496       C  0.65423818  0.06788060  0.32555703    -0.29400
H1497       H  0.67205796  0.02951870  0.28332477     0.14800
H1498       H  0.65464370  0.07802353  0.36331204     0.15400
C1499       C  0.85428719  0.42459148  0.17722666    -0.14200
C1500       C  0.83393211  0.44831925  0.18375761    -0.29400
H1501       H  0.85679512  0.41615562  0.13855368     0.14800
H1502       H  0.83129679  0.45988690  0.21993051     0.15400
C1503       C  0.84102820  0.42491446  0.34684856    -0.14200
C1504       C  0.84079903  0.42042004  0.29610415    -0.29400
H1505       H  0.86180744  0.41788464  0.36725932     0.14800
H1506       H  0.81948281  0.42562619  0.27617923     0.15400
C1507       C  0.65638438  0.42522530  0.30646577    -0.14200
C1508       C  0.67148321  0.41461440  0.34850423    -0.29400
H1509       H  0.66031985  0.44914546  0.29338241     0.14800
H1510       H  0.66762843  0.39079569  0.36181876     0.15400
C1511       C  0.68059915  0.43610588  0.18949583    -0.14200
C1512       C  0.65023532  0.42772788  0.18708671    -0.29400
H1513       H  0.69388388  0.43087631  0.22347992     0.14800
H1514       H  0.63814647  0.43254527  0.15168107     0.15400
C1515       C  0.67188053  0.30582428  0.32797426    -0.11000
C1516       C  0.65885255  0.32459835  0.30198405    -0.12600
C1517       C  0.67677576  0.31415329  0.16367751    -0.11000
C1518       C  0.66194540  0.32997385  0.19153296    -0.12600
C1519       C  0.83433321  0.33006954  0.29166076    -0.11000
C1520       C  0.81708429  0.31568093  0.31879440    -0.12600
C1521       C  0.81689857  0.32724733  0.15430168    -0.11000
C1522       C  0.83620938  0.33760356  0.18136870    -0.12600
C1523       C  0.84192346  0.16746958  0.30455511    -0.11000
C1524       C  0.82764164  0.18501884  0.33044051    -0.12600
C1525       C  0.82708310  0.18584790  0.16734327    -0.11000
C1526       C  0.84035057  0.16783107  0.19428207    -0.12600
C1527       C  0.68435465  0.17038700  0.34451592    -0.11000
C1528       C  0.66716468  0.15806526  0.31642840    -0.12600
C1529       C  0.67146964  0.16048058  0.20543304    -0.11000
C1530       C  0.68907346  0.17475619  0.17822135    -0.12600
O1531       O  0.70234264  0.18303281  0.59498953    -0.73100
O1532       O  0.72634212  0.21631644  0.64951027    -0.52000
C1533       C  0.70850594  0.19322546  0.63947760     0.80700
O1534       O  0.82054957  0.19635404  0.91346712    -0.57700
O1535       O  0.78652200  0.21490712  0.85397838    -0.50700
C1536       C  0.81056365  0.19961155  0.86791829     0.72700
O1537       O  0.82094577  0.19796595  0.58236672    -0.72200
O1538       O  0.79092182  0.22217193  0.64232860    -0.52800
C1539       C  0.81253500  0.20343299  0.62829297     0.78700
O1540       O  0.70315875  0.17034062  0.92595669    -0.57400
O1541       O  0.72090099  0.20275657  0.86193057    -0.50500
C1542       C  0.70661365  0.17846452  0.87921715     0.75300
Zr1543     Zr  0.71670013  0.19456891  0.50742533     2.54700
O1544       O  0.73929261  0.14261179  0.51251687    -0.77900
O1545       O  0.66214715  0.17388489  0.00644152    -0.91300
Zr1546     Zr  0.80648719  0.21401306  0.49764240     2.64700
O1547       O  0.82869372  0.16158502  0.50192146    -0.96600
O1548       O  0.85762448  0.23442469  0.99587553    -0.78400
O1549       O  0.76292578  0.20445733  0.55140592    -0.81700
O1550       O  0.75997055  0.19930602  0.95358493    -2.16400
O1551       O  0.67833977  0.29344955  0.91183716    -0.65100
O1552       O  0.71085507  0.27157435  0.85282545    -0.49700
C1553       C  0.68758260  0.28835911  0.86617418     0.73700
O1554       O  0.80403130  0.32227514  0.57182291    -0.58000
O1555       O  0.78369083  0.29104870  0.63530503    -0.50000
C1556       C  0.80061349  0.31353202  0.61840189     0.75500
O1557       O  0.80554211  0.30976038  0.90445099    -0.69400
O1558       O  0.78005640  0.27875142  0.84814064    -0.48100
C1559       C  0.79992118  0.29993422  0.85952093     0.76800
O1560       O  0.68588692  0.30476819  0.58015471    -0.64700
O1561       O  0.71685069  0.28215457  0.64054247    -0.51900
C1562       C  0.69469961  0.29991047  0.62591459     0.75200
Zr1563     Zr  0.69593679  0.28215458  0.99708576     2.77500
O1564       O  0.68084713  0.33958661  0.49069503    -0.95500
O1565       O  0.64418653  0.26002104  0.00816016    -0.76300
Zr1566     Zr  0.78537609  0.30235530  0.99013358     2.70100
O1567       O  0.76073063  0.35277247  0.97513699    -0.77600
O1568       O  0.83719904  0.33143871  0.48995602    -0.96600
Zr1569     Zr  0.75384628  0.25208766  0.59386532     2.21500
Zr1570     Zr  0.74926947  0.24405696  0.90176252     2.11100
O1571       O  0.73987983  0.29196610  0.94415356    -2.45300
O1572       O  0.74322567  0.29724259  0.54306219    -0.77400
O1573       O  0.70410228  0.23509215  0.95266273    -0.69600
O1574       O  0.79901585  0.26073103  0.54260517    -2.30500
O1575       O  0.70667567  0.24157858  0.55097586    -2.26700
O1576       O  0.79587936  0.25588185  0.94515859    -0.71300
H1577       H  0.76331210  0.18070389  0.93364269     0.80700
H1578       H  0.81730239  0.26434112  0.56280716     0.81800
H1579       H  0.73631336  0.30892280  0.92027994     0.84000
H1580       H  0.68932673  0.23931876  0.57437933     0.81600
H1581       H  0.86021444  0.24419666  0.45585370     0.44600
H1582       H  0.85054065  0.31350752  0.97813229     0.43600
H1583       H  0.77370634  0.36321944  0.44172867     0.43300
H1584       H  0.68634588  0.34531163  0.96273017     0.41200
H1585       H  0.63924251  0.26215149  0.04488239     0.44400
H1586       H  0.65263720  0.18478532  0.53377742     0.39100
H1587       H  0.73697510  0.13623726  0.54875375     0.45300
H1588       H  0.84822177  0.16162092  0.01360879     0.41700
H1589       H  0.65355991  0.33285367  0.98008039     0.46600
H1590       H  0.66734175  0.15126663  0.52972512     0.45300
H1591       H  0.84865040  0.16304190  0.48289417     0.45400
H1592       H  0.83461559  0.34617475  0.96975309     0.45800
O1593       O  0.68991747  0.44078726  0.60079774    -0.73100
O1594       O  0.71962180  0.46960511  0.65487774    -0.52000
C1595       C  0.69739524  0.45001299  0.64574344     0.80700
O1596       O  0.82216336  0.43550060  0.92776130    -0.57700
O1597       O  0.79354072  0.45209689  0.85971243    -0.50700
C1598       C  0.81728086  0.43788567  0.87964308     0.72700
O1599       O  0.82006888  0.44741444  0.59637241    -0.72200
O1600       O  0.79199843  0.47658589  0.65272116    -0.52800
C1601       C  0.81444141  0.45773362  0.64165122     0.78700
O1602       O  0.68809629  0.43007814  0.92736112    -0.57400
O1603       O  0.71487510  0.45066902  0.85902952    -0.50500
C1604       C  0.69302945  0.43362690  0.87901940     0.75300
Zr1605     Zr  0.70854624  0.44716193  0.51223646     2.54700
O1606       O  0.71556712  0.39134407  0.52734488    -0.77900
O1607       O  0.65170788  0.43942399  0.01192383    -0.91300
Zr1608     Zr  0.79938063  0.45142450  0.50936242     2.64700
O1609       O  0.79676343  0.39556165  0.52660421    -0.96300
O1610       O  0.85567277  0.44494472  0.00975315    -0.78400
O1611       O  0.75427539  0.45256257  0.56183892    -0.81700
O1612       O  0.75388671  0.44314059  0.95875856    -2.16400
O1613       O  0.67664833  0.04084500  0.91110963    -0.65100
O1614       O  0.70742046  0.02055605  0.84847779    -0.49700
C1615       C  0.68249545  0.03490458  0.86417861     0.73700
O1616       O  0.81365564  0.06287794  0.57076709    -0.58000
O1617       O  0.79198589  0.03629049  0.63844243    -0.50000
C1618       C  0.81065327  0.05716739  0.61890222     0.75500
O1619       O  0.81213794  0.05350003  0.89813801    -0.69400
O1620       O  0.78138369  0.02651965  0.84308793    -0.48100
C1621       C  0.80411184  0.04524453  0.85288357     0.76800
O1622       O  0.68219623  0.04368495  0.57923792    -0.64700
O1623       O  0.71402616  0.02482792  0.64189834    -0.51900
C1624       C  0.68903352  0.03824605  0.62645308     0.75200
Zr1625     Zr  0.70205688  0.03942053  0.99320935     2.77500
O1626       O  0.70450415  0.08905329  0.48484603    -0.95500
O1627       O  0.64807000  0.03319868  0.49331203    -0.76300
Zr1628     Zr  0.79257020  0.04888098  0.98659221     2.70100
O1629       O  0.78027314  0.10367535  0.97031390    -0.77600
O1630       O  0.84983043  0.05917664  0.49124940    -0.96600
Zr1631     Zr  0.75305775  0.50324702  0.60026087     2.21500
Zr1632     Zr  0.75255967  0.48595924  0.89784286     2.11100
O1633       O  0.74627113  0.04197239  0.93864823    -2.45300
O1634       O  0.75031817  0.04216823  0.54292141    -0.77400
O1635       O  0.70666976  0.48830611  0.94961196    -0.69600
O1636       O  0.79856161  0.50115070  0.54700536    -2.30500
O1637       O  0.70696145  0.49705037  0.55071481    -2.26700
O1638       O  0.79831060  0.49185064  0.94816044    -0.71300
H1639       H  0.75463138  0.42325074  0.94161058     0.80700
H1640       H  0.81729797  0.50339988  0.56658712     0.81800
H1641       H  0.74411346  0.05871841  0.91374531     0.84000
H1642       H  0.68839220  0.49711330  0.57161674     0.81600
H1643       H  0.86256775  0.47159798  0.50720973     0.44600
H1644       H  0.85785442  0.04595369  0.96416930     0.43600
H1645       H  0.78131934  0.10037366  0.43840035     0.43300
H1646       H  0.70606725  0.09797026  0.93989835     0.41200
H1647       H  0.63893410  0.02014404  0.00425337     0.44400
H1648       H  0.64440208  0.45747446  0.53665048     0.39100
H1649       H  0.72982074  0.38994131  0.55668067     0.45300
H1650       H  0.81687641  0.38847039  0.03726214     0.41700
H1651       H  0.68148431  0.10236413  0.98352607     0.46600
H1652       H  0.64833595  0.42104924  0.53250772     0.45300
H1653       H  0.78756688  0.39379449  0.56125633     0.45400
H1654       H  0.84964798  0.08168096  0.96725335     0.45800
O1655       O  0.95004508  0.30799351  0.60029004    -0.73100
O1656       O  0.98103251  0.27984244  0.65425775    -0.52000
C1657       C  0.96034881  0.30097914  0.64520558     0.80700
O1658       O  0.94372478  0.17769880  0.92758061    -0.57700
O1659       O  0.96272693  0.20702302  0.86076070    -0.50700
C1660       C  0.94620033  0.18429101  0.87961767     0.72700
O1661       O  0.95392263  0.18082693  0.59975680    -0.72200
O1662       O  0.98135615  0.21192580  0.65363636    -0.52800
C1663       C  0.96235244  0.18916879  0.64469846     0.78700
O1664       O  0.93759830  0.30745788  0.93005715    -0.57400
O1665       O  0.96112258  0.28343096  0.86246125    -0.50500
C1666       C  0.94224371  0.30370573  0.88193045     0.75300
Zr1667     Zr  0.95598455  0.29043329  0.51083322     2.54700
O1668       O  0.90031686  0.28373329  0.52462275    -0.77900
O1669       O  0.95450844  0.34527645  0.00893256    -0.91300
Zr1670     Zr  0.96044757  0.19848614  0.51080231     2.64700
O1671       O  0.90435243  0.19978209  0.52073826    -0.96300
O1672       O  0.96705414  0.13900796  0.00814565    -0.78400
O1673       O  0.96238221  0.24439743  0.56113259    -0.81700
O1674       O  0.95498362  0.24241994  0.96071427    -2.16400
O1675       O  0.54616302  0.31294632  0.90053254    -0.65100
O1676       O  0.52098607  0.28069468  0.84566065    -0.49700
C1677       C  0.53733069  0.30529274  0.85554838     0.73700
O1678       O  0.56681590  0.18500046  0.57339734    -0.58000
O1679       O  0.54465772  0.21051869  0.64076876    -0.50000
C1680       C  0.56198339  0.18867037  0.62140055     0.75500
O1681       O  0.55493513  0.17727987  0.90526551    -0.69400
O1682       O  0.52553125  0.20464626  0.84819950    -0.48100
C1683       C  0.54466873  0.18252819  0.85983032     0.76800
O1684       O  0.55511431  0.32103814  0.56771262    -0.64700
O1685       O  0.53968708  0.29102269  0.63620052    -0.51900
C1686       C  0.55280481  0.31562885  0.61596707     0.75200
Zr1687     Zr  0.54439782  0.29275619  0.98792986     2.77500
O1688       O  0.59943461  0.29859929  0.96886608    -0.95500
O1689       O  0.53759731  0.34932281  0.99159147    -0.76300
Zr1690     Zr  0.55149795  0.20055774  0.99081887     2.70100
O1691       O  0.60581134  0.21155810  0.97099423    -0.77600
O1692       O  0.56832754  0.15098952  0.49383998    -0.96600
Zr1693     Zr  0.50804648  0.24832946  0.59996910     2.21500
Zr1694     Zr  0.49522412  0.24091888  0.89987020     2.11100
O1695       O  0.54528830  0.24595845  0.93881610    -2.45300
O1696       O  0.55095286  0.25234796  0.53996667    -0.77400
O1697       O  0.49587674  0.28828473  0.94728586    -0.69600
O1698       O  0.50945925  0.20141105  0.55005124    -2.30500
O1699       O  0.49850599  0.29297856  0.54587689    -2.26700
O1700       O  0.50215367  0.19563302  0.95215818    -0.71300
H1701       H  0.93528672  0.24145751  0.94338291     0.80700
H1702       H  0.51153694  0.18293974  0.57122797     0.81800
H1703       H  0.56148803  0.24702621  0.91309677     0.84000
H1704       H  0.49717281  0.31189524  0.56550377     0.81600
H1705       H  0.97651158  0.13435468  0.49618802     0.44600
H1706       H  0.54732752  0.13415271  0.97825361     0.43600
H1707       H  0.61213107  0.20874220  0.44663095     0.43300
H1708       H  0.60295879  0.28592939  0.93799887     0.41200
H1709       H  0.51702930  0.35316814  0.97603974     0.44400
H1710       H  0.97020245  0.35515849  0.52411494     0.39100
H1711       H  0.89458917  0.29980265  0.54992886     0.45300
H1712       H  0.90367646  0.16862535  0.02786034     0.41700
H1713       H  0.60138787  0.32055267  0.95667497     0.46600
H1714       H  0.93468511  0.35181169  0.53730521     0.45300
H1715       H  0.90091362  0.21028492  0.55376312     0.45400
H1716       H  0.58297634  0.14202489  0.98010340     0.45800
C1717       C  0.62897816  0.12550251  0.70013336     0.47700
H1718       H  0.63036598  0.13256412  0.65934731    -0.01300
C1719       C  0.62904189  0.11021074  0.79557423     0.47700
H1720       H  0.62928044  0.10421882  0.83690774    -0.01300
C1721       C  0.65428146  0.14156817  0.73034865    -0.15000
C1722       C  0.59872728  0.13562636  0.72768048    -0.14800
C1723       C  0.63586655  0.09038484  0.70945876    -0.15200
C1724       C  0.65431025  0.13345034  0.78031966    -0.15100
C1725       C  0.59881149  0.12756624  0.77911576    -0.14700
C1726       C  0.63712013  0.08207021  0.76093193    -0.15000
C1727       C  0.87964302  0.12055560  0.69882289     0.47700
H1728       H  0.87973153  0.12104075  0.65649137    -0.01300
C1729       C  0.87997182  0.12107749  0.79751246     0.47700
H1730       H  0.87916522  0.12097438  0.83982713    -0.01300
C1731       C  0.85866421  0.14539885  0.72194845    -0.15000
C1732       C  0.86671457  0.08973904  0.72305030    -0.14800
C1733       C  0.91197127  0.12880381  0.72131442    -0.15200
C1734       C  0.85864503  0.14533179  0.77351220    -0.15100
C1735       C  0.86805099  0.08988180  0.77565144    -0.14700
C1736       C  0.91197881  0.13007430  0.77411855    -0.15000
C1737       C  0.62108381  0.37370293  0.70087352     0.47700
H1738       H  0.62078124  0.37392030  0.65852419    -0.01300
C1739       C  0.62383109  0.37272121  0.79917576     0.47700
H1740       H  0.62507446  0.37166700  0.84137283    -0.01300
C1741       C  0.64388720  0.34999907  0.72231706    -0.15000
C1742       C  0.63303791  0.40487539  0.72310376    -0.14800
C1743       C  0.59003558  0.36276514  0.72628485    -0.15200
C1744       C  0.64473904  0.34877889  0.77376363    -0.15100
C1745       C  0.63532093  0.40416883  0.77565808    -0.14700
C1746       C  0.59124687  0.36367411  0.77917294    -0.15000
C1747       C  0.87929801  0.37008545  0.79386530     0.47700
H1748       H  0.87632796  0.36924276  0.83580872    -0.01300
C1749       C  0.88538338  0.37228291  0.69591102     0.47700
H1750       H  0.88783006  0.37217946  0.65363374    -0.01300
C1751       C  0.85895684  0.34651990  0.76679364    -0.15000
C1752       C  0.86798446  0.40189520  0.76981705    -0.14800
C1753       C  0.91252880  0.36081633  0.77497379    -0.15200
C1754       C  0.86197816  0.34805997  0.71529695    -0.15100
C1755       C  0.87187209  0.40290128  0.71713021    -0.14700
C1756       C  0.91564518  0.36318698  0.72261941    -0.15000
C1757       C  0.56559351  0.34092919  0.64856908    -0.14200
C1758       C  0.57224960  0.33792863  0.69837407    -0.29400
H1759       H  0.57067031  0.36318025  0.62968701     0.14800
H1760       H  0.56953045  0.31496936  0.71580925     0.15400
C1761       C  0.57082122  0.34712502  0.81834541    -0.14200
C1762       C  0.54773010  0.32587212  0.81206210    -0.29400
H1763       H  0.57854533  0.35038605  0.85718305     0.14800
H1764       H  0.53719980  0.32198601  0.77555340     0.15400
C1765       C  0.58195535  0.14480655  0.82110291    -0.14200
C1766       C  0.55558231  0.16187230  0.81761324    -0.29400
H1767       H  0.59375246  0.14480893  0.85753731     0.14800
H1768       H  0.54199080  0.16163286  0.78308559     0.15400
C1769       C  0.57616079  0.16325490  0.65300763    -0.14200
C1770       C  0.58038382  0.16221739  0.70379827    -0.29400
H1771       H  0.58365734  0.14306828  0.63129361     0.14800
H1772       H  0.57348758  0.18229186  0.72600025     0.15400
C1773       C  0.93539984  0.14315821  0.68502819    -0.14200
C1774       C  0.94792010  0.17218992  0.68925589    -0.29400
H1775       H  0.93760480  0.13160318  0.64852669     0.14800
H1776       H  0.94517708  0.18510491  0.72431244     0.15400
C1777       C  0.92591028  0.16563010  0.84576293    -0.14200
C1778       C  0.93513584  0.14868667  0.80475689    -0.29400
H1779       H  0.90175118  0.16517011  0.85775407     0.14800
H1780       H  0.95937460  0.14934346  0.79275819     0.15400
C1781       C  0.92296548  0.32388208  0.84812608    -0.14200
C1782       C  0.93359615  0.34029134  0.80690728    -0.29400
H1783       H  0.89900547  0.32641238  0.86045167     0.14800
H1784       H  0.95773561  0.33757469  0.79518384     0.15400
C1785       C  0.94631695  0.31735811  0.68992091    -0.14200
C1786       C  0.94001649  0.34838933  0.68927541    -0.29400
H1787       H  0.93876420  0.30297835  0.72212057     0.14800
H1788       H  0.94702159  0.36181903  0.65563936     0.15400
C1789       C  0.85180206  0.06792503  0.81224635    -0.14200
C1790       C  0.82161692  0.05924163  0.80880710    -0.29400
H1791       H  0.86359563  0.06356183  0.84806433     0.14800
H1792       H  0.80868788  0.06426452  0.77438714     0.15400
C1793       C  0.83011844  0.07731397  0.65212871    -0.14200
C1794       C  0.84625152  0.06759993  0.69358861    -0.29400
H1795       H  0.83291107  0.10128606  0.63872772     0.14800
H1796       H  0.84356080  0.04359614  0.70708889     0.15400
C1797       C  0.66654482  0.04701356  0.66672901    -0.14200
C1798       C  0.65214916  0.07477613  0.66565600    -0.29400
H1799       H  0.66431836  0.03132632  0.69921310     0.14800
H1800       H  0.65520155  0.08889081  0.63119693     0.15400
C1801       C  0.65728846  0.04606509  0.82899535    -0.14200
C1802       C  0.66119720  0.05953448  0.78253162    -0.29400
H1803       H  0.63445443  0.04851629  0.84669211     0.14800
H1804       H  0.68420821  0.05909041  0.76514584     0.15400
C1805       C  0.85331060  0.42130180  0.67825253    -0.14200
C1806       C  0.83514540  0.44686425  0.68398003    -0.29400
H1807       H  0.85327830  0.41091571  0.64067373     0.14800
H1808       H  0.83461876  0.45958656  0.71940008     0.15400
C1809       C  0.84245560  0.42363743  0.84765210    -0.14200
C1810       C  0.84201514  0.41910292  0.79698086    -0.29400
H1811       H  0.86316664  0.41644938  0.86810464     0.14800
H1812       H  0.82099873  0.42513906  0.77676118     0.15400
C1813       C  0.65615390  0.42558119  0.80558035    -0.14200
C1814       C  0.67286231  0.41464749  0.84567931    -0.29400
H1815       H  0.65848306  0.44996186  0.79384493     0.14800
H1816       H  0.67087693  0.39030163  0.85729621     0.15400
C1817       C  0.67968374  0.43621566  0.69008998    -0.14200
C1818       C  0.64959536  0.42680778  0.68637227    -0.29400
H1819       H  0.69247156  0.43189782  0.72484806     0.14800
H1820       H  0.63808457  0.43063253  0.65014740     0.15400
C1821       C  0.67217506  0.30544788  0.82786212    -0.11000
C1822       C  0.66014905  0.32469816  0.80149942    -0.12600
C1823       C  0.67801733  0.31581133  0.66331452    -0.11000
C1824       C  0.66231241  0.33077913  0.69104161    -0.12600
C1825       C  0.83618713  0.32781121  0.79319741    -0.11000
C1826       C  0.81813479  0.31373121  0.81985119    -0.12600
C1827       C  0.81979596  0.32782176  0.65391268    -0.11000
C1828       C  0.83908393  0.33632482  0.68252330    -0.12600
C1829       C  0.84146113  0.16686739  0.80295012    -0.11000
C1830       C  0.82714832  0.18355112  0.83025542    -0.12600
C1831       C  0.82802154  0.18576859  0.66604593    -0.11000
C1832       C  0.84182571  0.16764261  0.69226703    -0.12600
C1833       C  0.69187917  0.15940607  0.84377480    -0.11000
C1834       C  0.67575431  0.14572622  0.81521346    -0.12600
C1835       C  0.67636963  0.16220132  0.70687962    -0.11000
C1836       C  0.69307289  0.17777223  0.68032461    -0.12600
O1837       O  0.70804029  0.67627140  0.09375164    -0.73100
O1838       O  0.73114332  0.70995305  0.14859186    -0.52000
C1839       C  0.71424468  0.68614669  0.13849262     0.80700
O1840       O  0.82466527  0.69556213  0.41143444    -0.57700
O1841       O  0.79054487  0.71519898  0.35303884    -0.50700
C1842       C  0.81412732  0.69895819  0.36628662     0.72700
O1843       O  0.82278256  0.69232033  0.07761978    -0.72200
O1844       O  0.79527449  0.71822429  0.13892437    -0.52800
C1845       C  0.81566863  0.69862596  0.12391881     0.78700
O1846       O  0.70921325  0.66915123  0.42867427    -0.57400
O1847       O  0.72717856  0.70041431  0.36337030    -0.50500
C1848       C  0.71309702  0.67627848  0.38157154     0.75300
Zr1849     Zr  0.71925937  0.69018889  0.00536911     2.54700
O1850       O  0.74005787  0.63739197  0.00472746    -0.77900
O1851       O  0.67117316  0.66740843  0.50979690    -0.91300
Zr1852     Zr  0.80899575  0.70997000  0.99290151     2.64700
O1853       O  0.83614828  0.65989310  0.99447815    -0.96600
O1854       O  0.86428180  0.73323111  0.48687635    -0.78400
O1855       O  0.76606628  0.69981058  0.04800438    -0.81700
O1856       O  0.76556017  0.69930512  0.45401127    -2.16400
O1857       O  0.68247223  0.79230215  0.41576011    -0.65100
O1858       O  0.71287529  0.76914639  0.35513567    -0.49700
C1859       C  0.69022077  0.78638210  0.36969814     0.73700
O1860       O  0.80688574  0.81734544  0.07150380    -0.58000
O1861       O  0.78629235  0.78622155  0.13482400    -0.50000
C1862       C  0.80307979  0.80882434  0.11798981     0.75500
O1863       O  0.80692370  0.81076775  0.40193979    -0.69400
O1864       O  0.78043604  0.77978969  0.34685969    -0.48100
C1865       C  0.80000362  0.80139031  0.35733292     0.76800
O1866       O  0.68907221  0.79923511  0.08485160    -0.64700
O1867       O  0.72089354  0.77586980  0.14310058    -0.51900
C1868       C  0.69851447  0.79383378  0.13014151     0.75200
Zr1869     Zr  0.70126321  0.78090544  0.50011977     2.77500
O1870       O  0.68343453  0.83538260  0.99483707    -0.95500
O1871       O  0.64870658  0.76091722  0.50861847    -0.76300
Zr1872     Zr  0.79037392  0.80212439  0.48900416     2.70100
O1873       O  0.77019252  0.85409217  0.47081001    -0.77600
O1874       O  0.84214057  0.82252252  0.98920503    -0.96600
Zr1875     Zr  0.75716549  0.74689318  0.09279229     2.21500
Zr1876     Zr  0.75320072  0.74345321  0.40229602     2.11100
O1877       O  0.74413962  0.79112155  0.44542970    -2.45300
O1878       O  0.74637617  0.79271492  0.04420009    -0.77400
O1879       O  0.70910074  0.73373119  0.45553474    -0.69600
O1880       O  0.80206689  0.75581993  0.04063598    -2.30500
O1881       O  0.70957707  0.73631704  0.05170164    -2.26700
O1882       O  0.80048658  0.75604220  0.44303124    -0.71300
H1883       H  0.76887118  0.68065439  0.43424335     0.80700
H1884       H  0.82047576  0.75921126  0.06065204     0.81800
H1885       H  0.73994192  0.80811635  0.42191226     0.84000
H1886       H  0.69264161  0.73345054  0.07574040     0.81600
H1887       H  0.86577942  0.73168244  0.94805868     0.44600
H1888       H  0.85553412  0.80659959  0.46951395     0.43600
H1889       H  0.77605377  0.86005504  0.94577935     0.43300
H1890       H  0.69536912  0.84488688  0.46877402     0.41200
H1891       H  0.64434480  0.75294085  0.47416118     0.44400
H1892       H  0.65584921  0.68108994  0.03576435     0.39100
H1893       H  0.73430603  0.62836136  0.03846189     0.45300
H1894       H  0.85033089  0.65879986  0.50823154     0.41700
H1895       H  0.66194750  0.83415312  0.48597997     0.46600
H1896       H  0.67009075  0.64739015  0.03122910     0.45300
H1897       H  0.85705618  0.66456010  0.98015977     0.45400
H1898       H  0.84327221  0.84111627  0.46892300     0.45800
O1899       O  0.69381728  0.93979300  0.10001237    -0.73100
O1900       O  0.72251467  0.96958259  0.15402116    -0.52000
C1901       C  0.70132171  0.94902451  0.14501809     0.80700
O1902       O  0.82858936  0.93903957  0.42589449    -0.57700
O1903       O  0.79688863  0.95350790  0.36019293    -0.50700
C1904       C  0.82208348  0.94107509  0.37824923     0.72700
O1905       O  0.82180450  0.95009063  0.09055043    -0.72200
O1906       O  0.79223338  0.97693016  0.14812424    -0.52800
C1907       C  0.81523401  0.95889721  0.13647197     0.78700
O1908       O  0.69516450  0.92328390  0.42909811    -0.57400
O1909       O  0.71793033  0.94859445  0.36122414    -0.50500
C1910       C  0.69800197  0.92912826  0.38088982     0.75300
Zr1911     Zr  0.71079622  0.94756348  0.01051760     2.54700
O1912       O  0.72385723  0.89255740  0.02160610    -0.77900
O1913       O  0.66205635  0.92136549  0.51264738    -0.91300
Zr1914     Zr  0.80177817  0.95734435  0.00307198     2.64700
O1915       O  0.80756610  0.90116450  0.01599473    -0.96300
O1916       O  0.86269545  0.96078120  0.51101781    -0.78400
O1917       O  0.75714763  0.95493252  0.05742844    -0.81700
O1918       O  0.76134947  0.94106237  0.45946677    -2.16400
O1919       O  0.67595624  0.52347218  0.41842925    -0.65100
O1920       O  0.70993709  0.51852736  0.35319071    -0.49700
C1921       C  0.68315490  0.52724580  0.37145000     0.73700
O1922       O  0.81412064  0.56208509  0.06849647    -0.58000
O1923       O  0.78941999  0.53843114  0.13628667    -0.50000
C1924       C  0.80981620  0.55737972  0.11682715     0.75500
O1925       O  0.81551850  0.54718656  0.39789494    -0.69400
O1926       O  0.78396703  0.52053883  0.34352183    -0.48100
C1927       C  0.80696923  0.53906649  0.35278818     0.76800
O1928       O  0.68937291  0.56193189  0.06686107    -0.64700
O1929       O  0.71463474  0.53887444  0.13388408    -0.51900
C1930       C  0.69448156  0.55785817  0.11462015     0.75200
Zr1931     Zr  0.70625421  0.53913663  0.49086000     2.77500
O1932       O  0.69800201  0.59372550  0.96801545    -0.95500
O1933       O  0.64904678  0.52996255  0.99427229    -0.76300
Zr1934     Zr  0.79675667  0.54288737  0.48697008     2.70100
O1935       O  0.79055983  0.59865624  0.46993475    -0.77600
O1936       O  0.85304702  0.54785886  0.98801699    -0.96600
Zr1937     Zr  0.75277029  0.00470866  0.09843963     2.21500
Zr1938     Zr  0.75499853  0.98462830  0.40094788     2.11100
O1939       O  0.75096582  0.53796534  0.43744559    -2.45300
O1940       O  0.75068660  0.54541790  0.03641418    -0.77400
O1941       O  0.70954782  0.98287188  0.45438126    -0.69600
O1942       O  0.79805624  0.00609867  0.04410061    -2.30500
O1943       O  0.70639319  0.99656519  0.05071262    -2.26700
O1944       O  0.80081389  0.99351621  0.44996410    -0.71300
H1945       H  0.76353774  0.92161390  0.44120372     0.80700
H1946       H  0.81681467  0.00881150  0.06349784     0.81800
H1947       H  0.75036528  0.55407961  0.41137740     0.84000
H1948       H  0.68821285  0.99579563  0.07254673     0.81600
H1949       H  0.85970740  0.98634618  0.97761500     0.44600
H1950       H  0.86086398  0.53073404  0.46540331     0.43600
H1951       H  0.79282106  0.60697490  0.00462237     0.43300
H1952       H  0.71001111  0.59219107  0.42388005     0.41200
H1953       H  0.64021248  0.54691370  0.49357231     0.44400
H1954       H  0.64636152  0.95089111  0.03846369     0.39100
H1955       H  0.71342684  0.88607409  0.05384711     0.45300
H1956       H  0.83658002  0.89264529  0.52455290     0.41700
H1957       H  0.70243756  0.60530832  0.47780497     0.46600
H1958       H  0.65348932  0.91530349  0.02968564     0.45300
H1959       H  0.79473101  0.89631869  0.04663696     0.45400
H1960       H  0.85808294  0.56716112  0.47116531     0.45800
O1961       O  0.94897815  0.80578483  0.10060583    -0.73100
O1962       O  0.97867961  0.77626306  0.15462972    -0.52000
C1963       C  0.95869518  0.79819629  0.14558328     0.80700
O1964       O  0.94637745  0.67227870  0.43095629    -0.57700
O1965       O  0.95957331  0.70300686  0.36226388    -0.50700
C1966       C  0.94733622  0.67800815  0.38263316     0.72700
O1967       O  0.95686111  0.67636150  0.09895496    -0.72200
O1968       O  0.98574877  0.70534202  0.15376529    -0.52800
C1969       C  0.96719348  0.68249754  0.14380452     0.78700
O1970       O  0.93464901  0.80752840  0.43013916    -0.57400
O1971       O  0.95668678  0.78249471  0.36218917    -0.50500
C1972       C  0.93882493  0.80357595  0.38185368     0.75300
Zr1973     Zr  0.95464968  0.78746215  0.01189262     2.54700
O1974       O  0.89957189  0.77873038  0.02865508    -0.77900
O1975       O  0.94893523  0.84428527  0.50968391    -0.91300
Zr1976     Zr  0.95962239  0.69589243  0.01080964     2.64700
O1977       O  0.90429116  0.69537241  0.03090343    -0.96300
O1978       O  0.96669765  0.63852057  0.51845114    -0.78400
O1979       O  0.96121087  0.74139081  0.06204355    -0.81700
O1980       O  0.95088563  0.74101812  0.46204723    -2.16400
O1981       O  0.55143219  0.81240375  0.39605266    -0.65100
O1982       O  0.52959366  0.77680257  0.34275172    -0.49700
C1983       C  0.54582296  0.80171068  0.35126319     0.73700
O1984       O  0.57056250  0.67668446  0.07690711    -0.58000
O1985       O  0.55131372  0.70604064  0.14196833    -0.50000
C1986       C  0.56672044  0.68234048  0.12453622     0.75500
O1987       O  0.56064159  0.68121045  0.40948087    -0.69400
O1988       O  0.52854198  0.70398442  0.35083415    -0.48100
C1989       C  0.54973620  0.68417576  0.36382970     0.76800
O1990       O  0.57146282  0.80822152  0.06764899    -0.64700
O1991       O  0.54807661  0.78342053  0.13574763    -0.51900
C1992       C  0.56644530  0.80431488  0.11594185     0.75200
Zr1993     Zr  0.54424090  0.79523595  0.48507911     2.77500
O1994       O  0.60019355  0.79831677  0.47180241    -0.95500
O1995       O  0.53814969  0.85192764  0.48159763    -0.76300
Zr1996     Zr  0.55137941  0.70269295  0.49564901     2.70100
O1997       O  0.60756442  0.70652779  0.48889600    -0.77600
O1998       O  0.59142474  0.65197902  0.99928316    -0.96600
Zr1999     Zr  0.51570384  0.74275924  0.09737634     2.21500
Zr2000     Zr  0.49739187  0.74206829  0.39733634     2.11100
O2001       O  0.54628533  0.74705292  0.44021541    -2.45300
O2002       O  0.55982058  0.74536254  0.04041348    -0.77400
O2003       O  0.49608757  0.78992687  0.44312297    -0.69600
O2004       O  0.51488832  0.69567090  0.04900822    -2.30500
O2005       O  0.50992020  0.78834618  0.04355794    -2.26700
O2006       O  0.50359102  0.69807249  0.45313377    -0.71300
H2007       H  0.93095571  0.73951939  0.44552863     0.80700
H2008       H  0.51621518  0.67706917  0.06996376     0.81800
H2009       H  0.56331984  0.74739180  0.41594594     0.84000
H2010       H  0.51030386  0.80718393  0.06349666     0.81600
H2011       H  0.98389792  0.63386272  0.01650841     0.44600
H2012       H  0.53527980  0.63884104  0.47782085     0.43600
H2013       H  0.61596232  0.70598411  0.93913596     0.43300
H2014       H  0.60386809  0.78906393  0.43786039     0.41200
H2015       H  0.55964423  0.86020127  0.47886362     0.44400
H2016       H  0.96788977  0.85209509  0.02845788     0.39100
H2017       H  0.89318701  0.79626916  0.05075599     0.45300
H2018       H  0.90276221  0.66630504  0.53397359     0.41700
H2019       H  0.60453745  0.82092066  0.46672452     0.46600
H2020       H  0.93166568  0.84874334  0.03412813     0.45300
H2021       H  0.90226641  0.70832297  0.06181867     0.45400
H2022       H  0.57150998  0.63933344  0.48446074     0.45800
C2023       C  0.63347325  0.62065907  0.20704742     0.47700
H2024       H  0.63391003  0.62581859  0.16554422    -0.01300
C2025       C  0.63410966  0.60902874  0.30394528     0.47700
H2026       H  0.63473739  0.60458058  0.34573193    -0.01300
C2027       C  0.66027458  0.63632646  0.23444221    -0.15000
C2028       C  0.60427797  0.63351369  0.23482533    -0.14800
C2029       C  0.63848012  0.58557810  0.22015554    -0.15200
C2030       C  0.66062988  0.62995869  0.28517317    -0.15100
C2031       C  0.60471638  0.62750370  0.28691909    -0.14700
C2032       C  0.63927023  0.57917593  0.27183049    -0.15000
C2033       C  0.87943463  0.61654139  0.19790648     0.47700
H2034       H  0.87900522  0.61674819  0.15561201    -0.01300
C2035       C  0.88038889  0.61738193  0.29623372     0.47700
H2036       H  0.87979727  0.61776065  0.33855071    -0.01300
C2037       C  0.85806948  0.64077124  0.22103293    -0.15000
C2038       C  0.86730494  0.58572904  0.22178951    -0.14800
C2039       C  0.91161179  0.62594585  0.21933383    -0.15200
C2040       C  0.85806445  0.64087743  0.27257254    -0.15100
C2041       C  0.86917756  0.58567250  0.27440044    -0.14700
C2042       C  0.91186972  0.62810295  0.27222389    -0.15000
C2043       C  0.62790096  0.87091981  0.19970175     0.47700
H2044       H  0.62953788  0.87144911  0.15743841    -0.01300
C2045       C  0.62610748  0.87070405  0.29832983     0.47700
H2046       H  0.62507139  0.86991528  0.34065006    -0.01300
C2047       C  0.64873516  0.84650329  0.22437821    -0.15000
C2048       C  0.63933626  0.90191772  0.22279012    -0.14800
C2049       C  0.59546448  0.86162293  0.22114462    -0.15200
C2050       C  0.64709014  0.84569758  0.27585493    -0.15100
C2051       C  0.64003590  0.90148465  0.27550097    -0.14700
C2052       C  0.59425256  0.86303675  0.27391776    -0.15000
C2053       C  0.87876580  0.87190688  0.29146021     0.47700
H2054       H  0.87557386  0.87157933  0.33341296    -0.01300
C2055       C  0.88512795  0.87287673  0.19342905     0.47700
H2056       H  0.88751321  0.87217933  0.15118776    -0.01300
C2057       C  0.85752518  0.84906441  0.26479257    -0.15000
C2058       C  0.86896422  0.90388463  0.26647709    -0.14800
C2059       C  0.91159707  0.86101622  0.27322646    -0.15200
C2060       C  0.86087027  0.84982442  0.21348838    -0.15100
C2061       C  0.87268901  0.90426046  0.21366436    -0.14700
C2062       C  0.91494732  0.86260820  0.22076836    -0.15000
C2063       C  0.58501674  0.82468731  0.14965454    -0.14200
C2064       C  0.57412644  0.84115950  0.19014035    -0.29400
H2065       H  0.60912168  0.82689942  0.13795453     0.14800
H2066       H  0.54989562  0.83868969  0.20158446     0.15400
C2067       C  0.57006252  0.84862783  0.30871118    -0.14200
C2068       C  0.56055782  0.81836933  0.30661295    -0.29400
H2069       H  0.56516423  0.86146975  0.34334500     0.14800
H2070       H  0.56622743  0.80448396  0.27346368     0.15400
C2071       C  0.58802848  0.64596661  0.32778036    -0.14200
C2072       C  0.56195586  0.66335743  0.32268152    -0.29400
H2073       H  0.59926329  0.64610068  0.36467937     0.14800
H2074       H  0.54893678  0.66270486  0.28759450     0.15400
C2075       C  0.58008103  0.65767484  0.15856988    -0.14200
C2076       C  0.58628712  0.65945320  0.20868429    -0.29400
H2077       H  0.58585726  0.63596230  0.13949910     0.14800
H2078       H  0.58125969  0.68104735  0.22840183     0.15400
C2079       C  0.93232325  0.64206276  0.18043832    -0.14200
C2080       C  0.95625926  0.66211925  0.18701970    -0.29400
H2081       H  0.92440665  0.63942328  0.14158009     0.14800
H2082       H  0.96721183  0.66494557  0.22353615     0.15400
C2083       C  0.93384775  0.65257240  0.35055630    -0.14200
C2084       C  0.92902029  0.65383907  0.29981534    -0.29400
H2085       H  0.92750386  0.63110410  0.37075611     0.14800
H2086       H  0.93357701  0.67587608  0.28033229     0.15400
C2087       C  0.92037355  0.82452998  0.34786286    -0.14200
C2088       C  0.93172818  0.84014155  0.30623743    -0.29400
H2089       H  0.89649004  0.82805305  0.35991807     0.14800
H2090       H  0.95579489  0.83643384  0.29489311     0.15400
C2091       C  0.94490225  0.81527975  0.19002451    -0.14200
C2092       C  0.93883588  0.84643396  0.18801884    -0.29400
H2093       H  0.93735886  0.80146650  0.22287122     0.14800
H2094       H  0.94594943  0.85915740  0.15373485     0.15400
C2095       C  0.85378639  0.56318026  0.31120029    -0.14200
C2096       C  0.82392993  0.55328438  0.30822149    -0.29400
H2097       H  0.86589317  0.55932526  0.34686867     0.14800
H2098       H  0.81063952  0.55776662  0.27400409     0.15400
C2099       C  0.82960849  0.57623257  0.15111184    -0.14200
C2100       C  0.84591911  0.56489296  0.19159091    -0.29400
H2101       H  0.83200455  0.60058697  0.13970428     0.14800
H2102       H  0.84319485  0.54049707  0.20295203     0.15400
C2103       C  0.67599045  0.57733817  0.14904475    -0.14200
C2104       C  0.65567491  0.56522640  0.18342357    -0.29400
H2105       H  0.67858636  0.60240347  0.14390715     0.14800
H2106       H  0.65370735  0.53993705  0.18764798     0.15400
C2107       C  0.65852563  0.54352835  0.34095106    -0.14200
C2108       C  0.66108618  0.55425381  0.29274764    -0.29400
H2109       H  0.63770983  0.55005880  0.36214078     0.14800
H2110       H  0.68148699  0.54770753  0.27063026     0.15400
C2111       C  0.85566210  0.92363634  0.17370636    -0.14200
C2112       C  0.83522247  0.94744092  0.17951582    -0.29400
H2113       H  0.85837496  0.91508977  0.13511333     0.14800
H2114       H  0.83205860  0.95854883  0.21592628     0.15400
C2115       C  0.84683587  0.92827326  0.34412595    -0.14200
C2116       C  0.84416393  0.92212047  0.29420968    -0.29400
H2117       H  0.86874334  0.92249768  0.36234656     0.14800
H2118       H  0.82188550  0.92608724  0.27637006     0.15400
C2119       C  0.66138299  0.92207485  0.30625050    -0.14200
C2120       C  0.67703192  0.91074959  0.34730949    -0.29400
H2121       H  0.66515429  0.94618736  0.29405492     0.14800
H2122       H  0.67312089  0.88671113  0.35956043     0.15400
C2123       C  0.68483222  0.93435587  0.18962650    -0.14200
C2124       C  0.65498146  0.92457889  0.18659786    -0.29400
H2125       H  0.69810841  0.93002415  0.22391136     0.14800
H2126       H  0.64298303  0.92860526  0.15085326     0.15400
C2127       C  0.67369503  0.80296086  0.33218462    -0.11000
C2128       C  0.66130386  0.82189173  0.30574334    -0.12600
C2129       C  0.68263138  0.80978260  0.16869423    -0.11000
C2130       C  0.66738289  0.82582797  0.19566902    -0.12600
C2131       C  0.83459529  0.83066303  0.29105573    -0.11000
C2132       C  0.81669831  0.81609214  0.31707008    -0.12600
C2133       C  0.82113840  0.82435067  0.15341600    -0.11000
C2134       C  0.83947675  0.83557475  0.18098012    -0.12600
C2135       C  0.84189778  0.66332722  0.30172118    -0.11000
C2136       C  0.82907167  0.68144439  0.32855536    -0.12600
C2137       C  0.83076256  0.68109402  0.16173379    -0.11000
C2138       C  0.84273341  0.66339162  0.19062123    -0.12600
C2139       C  0.69910579  0.65628097  0.34664593    -0.11000
C2140       C  0.68305862  0.64232477  0.31830677    -0.12600
C2141       C  0.68302565  0.65507800  0.20796494    -0.11000
C2142       C  0.69958044  0.66984003  0.17965814    -0.12600
O2143       O  0.70791334  0.67996725  0.59682743    -0.73100
O2144       O  0.73094644  0.71377087  0.65168895    -0.52000
C2145       C  0.71305180  0.69062700  0.64134286     0.80700
O2146       O  0.81981959  0.69293560  0.90721958    -0.57700
O2147       O  0.78603168  0.71355402  0.84935586    -0.50700
C2148       C  0.80939467  0.69680576  0.86210778     0.72700
O2149       O  0.82930467  0.69841588  0.57932503    -0.72200
O2150       O  0.79808274  0.72024060  0.64035167    -0.52800
C2151       C  0.82064584  0.70294473  0.62534863     0.78700
O2152       O  0.69715367  0.67732084  0.92429958    -0.57400
O2153       O  0.71737128  0.70833482  0.86048421    -0.50500
C2154       C  0.69949303  0.68674979  0.87794676     0.75300
Zr2155     Zr  0.72288056  0.69088791  0.50946945     2.54700
O2156       O  0.74705604  0.64016468  0.52422343    -0.77900
O2157       O  0.66738907  0.66732798  0.01210600    -0.91300
Zr2158     Zr  0.81174488  0.71283700  0.49596258     2.64700
O2159       O  0.82903548  0.65860429  0.49437135    -0.96600
O2160       O  0.86007006  0.73403110  0.98446199    -0.78400
O2161       O  0.76926729  0.70250941  0.55200538    -0.81700
O2162       O  0.76230517  0.69790467  0.94986061    -2.16400
O2163       O  0.67987813  0.79176321  0.91660461    -0.65100
O2164       O  0.71304700  0.77332517  0.85540614    -0.49700
C2165       C  0.68904701  0.78841960  0.87043903     0.73700
O2166       O  0.80424768  0.82352793  0.57012788    -0.58000
O2167       O  0.78700968  0.79133112  0.63482622    -0.50000
C2168       C  0.80147443  0.81536094  0.61704477     0.75500
O2169       O  0.80561498  0.81159931  0.90277891    -0.69400
O2170       O  0.77985286  0.78066975  0.84680770    -0.48100
C2171       C  0.79877750  0.80277825  0.85781938     0.76800
O2172       O  0.68752530  0.79820374  0.58442541    -0.64700
O2173       O  0.72148213  0.77918042  0.64367950    -0.51900
C2174       C  0.69754303  0.79488153  0.62995768     0.75200
Zr2175     Zr  0.70005956  0.78094566  0.00043001     2.77500
O2176       O  0.68375962  0.83512499  0.49763336    -0.95500
O2177       O  0.64750877  0.76177067  0.01584371    -0.76300
Zr2178     Zr  0.78988547  0.80028624  0.98958268     2.70100
O2179       O  0.76901294  0.85283610  0.97999433    -0.77600
O2180       O  0.84357509  0.82177403  0.49010831    -0.96600
Zr2181     Zr  0.75898469  0.74969564  0.59561353     2.21500
Zr2182     Zr  0.75155885  0.74407015  0.90088097     2.11100
O2183       O  0.74327605  0.79108452  0.94614094    -2.45300
O2184       O  0.74714852  0.79407450  0.54393643    -0.77400
O2185       O  0.70745674  0.73465451  0.95410464    -0.69600
O2186       O  0.80342731  0.75910348  0.54240408    -2.30500
O2187       O  0.71198873  0.73766819  0.55331493    -2.26700
O2188       O  0.79924821  0.75460805  0.94190918    -0.71300
H2189       H  0.76435588  0.67959175  0.92889901     0.80700
H2190       H  0.82171968  0.76363636  0.56214639     0.81800
H2191       H  0.73932236  0.80858326  0.92348401     0.84000
H2192       H  0.69463472  0.73515665  0.57664556     0.81600
H2193       H  0.86790062  0.73526961  0.44966596     0.44600
H2194       H  0.85426299  0.80948153  0.96522409     0.43600
H2195       H  0.78353490  0.86250022  0.44288690     0.43300
H2196       H  0.69504588  0.84432262  0.96528568     0.41200
H2197       H  0.64263699  0.76655928  0.05185953     0.44400
H2198       H  0.65997378  0.67727177  0.53853278     0.39100
H2199       H  0.73291718  0.62912373  0.54845750     0.45300
H2200       H  0.82605127  0.64715013  0.96809265     0.41700
H2201       H  0.66153456  0.83461800  0.98363652     0.46600
H2202       H  0.67438574  0.64548342  0.52121910     0.45300
H2203       H  0.81632175  0.64790030  0.52100442     0.45400
H2204       H  0.84014360  0.84308230  0.97166892     0.45800
O2205       O  0.69617926  0.93424955  0.60032981    -0.73100
O2206       O  0.72483492  0.96373998  0.65481135    -0.52000
C2207       C  0.70317209  0.94379108  0.64537511     0.80700
O2208       O  0.81980647  0.93971337  0.91918081    -0.57700
O2209       O  0.78837642  0.95806934  0.85545452    -0.50700
C2210       C  0.81198792  0.94205677  0.87195750     0.72700
O2211       O  0.82482370  0.94445245  0.59809231    -0.72200
O2212       O  0.79127112  0.96825453  0.65328566    -0.52800
C2213       C  0.81531247  0.95145005  0.64352358     0.78700
O2214       O  0.69090718  0.92852052  0.92933454    -0.57400
O2215       O  0.71180834  0.95483436  0.86066559    -0.50500
C2216       C  0.69321307  0.93428906  0.88108217     0.75300
Zr2217     Zr  0.71570662  0.93994452  0.51173962     2.54700
O2218       O  0.73035617  0.88595250  0.52851972    -0.77900
O2219       O  0.65520083  0.93624038  0.01321403    -0.91300
Zr2220     Zr  0.80683114  0.95139385  0.50903344     2.64700
O2221       O  0.81416029  0.89513163  0.51718682    -0.96300
O2222       O  0.85764400  0.96625253  0.99658589    -0.78400
O2223       O  0.76134301  0.94795647  0.56037522    -0.81700
O2224       O  0.75530782  0.94873969  0.95578580    -2.16400
O2225       O  0.68496135  0.54349582  0.90058935    -0.65100
O2226       O  0.71297889  0.51325684  0.84576306    -0.49700
C2227       C  0.69076914  0.53278481  0.85585038     0.73700
O2228       O  0.81567087  0.56277595  0.56886016    -0.58000
O2229       O  0.79078824  0.53985820  0.63733574    -0.50000
C2230       C  0.81153217  0.55836011  0.61727685     0.75500
O2231       O  0.81618008  0.54658003  0.89713252    -0.69400
O2232       O  0.78567884  0.51883703  0.84283273    -0.48100
C2233       C  0.80827018  0.53782355  0.85205873     0.76800
O2234       O  0.68357906  0.55284586  0.57210869    -0.64700
O2235       O  0.71292671  0.53667920  0.63952831    -0.51900
C2236       C  0.68891430  0.55035219  0.61991454     0.75200
Zr2237     Zr  0.70496512  0.53822355  0.98701370     2.77500
O2238       O  0.71746276  0.59192412  0.45948642    -0.95500
O2239       O  0.65536574  0.56420139  0.48843678    -0.76300
Zr2240     Zr  0.79668408  0.54202483  0.98560841     2.70100
O2241       O  0.78975159  0.59774005  0.97060875    -0.77600
O2242       O  0.85326939  0.54708722  0.48885870    -0.96600
Zr2243     Zr  0.75622485  0.99793280  0.59950676     2.21500
Zr2244     Zr  0.74901578  0.99223401  0.89705060     2.11100
O2245       O  0.75093401  0.53685807  0.93593093    -2.45300
O2246       O  0.75157766  0.54642381  0.54047903    -0.77400
O2247       O  0.70484503  0.99033432  0.95282517    -0.69600
O2248       O  0.80203732  0.00053521  0.54775398    -2.30500
O2249       O  0.71008457  0.98909482  0.55086603    -2.26700
O2250       O  0.79571448  0.99991043  0.94502863    -0.71300
H2251       H  0.75675665  0.92926408  0.93758704     0.80700
H2252       H  0.82041124  0.00370652  0.56795055     0.81800
H2253       H  0.75024382  0.55312772  0.91015458     0.84000
H2254       H  0.69156816  0.98783567  0.57180330     0.81600
H2255       H  0.86649241  0.97693659  0.48426696     0.44600
H2256       H  0.86121610  0.53206212  0.96405133     0.43600
H2257       H  0.80602398  0.60358120  0.44277734     0.43300
H2258       H  0.70765449  0.59716024  0.93398877     0.41200
H2259       H  0.64620074  0.50723464  0.98885804     0.44400
H2260       H  0.65027471  0.93719119  0.53218864     0.39100
H2261       H  0.73823260  0.88582078  0.56386095     0.45300
H2262       H  0.82928890  0.89842041  0.02746221     0.41700
H2263       H  0.67538114  0.59616375  0.96230843     0.46600
H2264       H  0.66206072  0.90241646  0.53480980     0.45300
H2265       H  0.80350839  0.88938355  0.54959706     0.45400
H2266       H  0.85729414  0.56829911  0.97108124     0.45800
O2267       O  0.94732274  0.80577186  0.60072425    -0.73100
O2268       O  0.97842092  0.77784564  0.65489364    -0.52000
C2269       C  0.95750136  0.79885504  0.64569121     0.80700
O2270       O  0.94071397  0.67697840  0.92886736    -0.57700
O2271       O  0.96104079  0.70457126  0.86101235    -0.50700
C2272       C  0.94417553  0.68241356  0.88067217     0.72700
O2273       O  0.95456089  0.67805917  0.60193733    -0.72200
O2274       O  0.98205292  0.70921959  0.65562666    -0.52800
C2275       C  0.96327794  0.68631644  0.64678196     0.78700
O2276       O  0.93430271  0.80618458  0.93027445    -0.57400
O2277       O  0.95753586  0.78233963  0.86215745    -0.50500
C2278       C  0.93863759  0.80242161  0.88205426     0.75300
Zr2279     Zr  0.95366558  0.78739541  0.51223730     2.54700
O2280       O  0.89863133  0.77943045  0.52953731    -0.77900
O2281       O  0.94925276  0.84427811  0.01068249    -0.91300
Zr2282     Zr  0.96073929  0.69519891  0.51258393     2.64700
O2283       O  0.90503934  0.68868257  0.52424886    -0.96300
O2284       O  0.96170044  0.63888816  0.01092010    -0.78400
O2285       O  0.96135083  0.74139382  0.56236957    -0.81700
O2286       O  0.95191200  0.74188318  0.96035573    -2.16400
O2287       O  0.55436586  0.80963415  0.89700158    -0.65100
O2288       O  0.53499332  0.77293135  0.84304328    -0.49700
C2289       C  0.54912886  0.79906097  0.85198727     0.73700
O2290       O  0.56707215  0.68571183  0.58179905    -0.58000
O2291       O  0.54526617  0.71800054  0.64134021    -0.50000
C2292       C  0.56262902  0.69476112  0.62812381     0.75500
O2293       O  0.55336220  0.66677425  0.91731649    -0.69400
O2294       O  0.53432813  0.69625343  0.85181211    -0.48100
C2295       C  0.54779107  0.67145321  0.86987147     0.76800
O2296       O  0.56371185  0.81425148  0.56681847    -0.64700
O2297       O  0.53944135  0.79120355  0.63549089    -0.51900
C2298       C  0.55873205  0.81094351  0.61518143     0.75200
Zr2299     Zr  0.55225432  0.78972626  0.98530385     2.77500
O2300       O  0.60684701  0.79592278  0.96249876    -0.95500
O2301       O  0.54681677  0.84641549  0.98853641    -0.76300
Zr2302     Zr  0.55842712  0.69836370  0.99316223     2.70100
O2303       O  0.61033557  0.71708421  0.97082647    -0.77600
O2304       O  0.55181908  0.64568079  0.50126169    -0.96600
Zr2305     Zr  0.50696065  0.75078288  0.59751097     2.21500
Zr2306     Zr  0.50425384  0.73675442  0.89736787     2.11100
O2307       O  0.55371776  0.74231544  0.93800613    -2.45300
O2308       O  0.55111539  0.75122045  0.54045206    -0.77400
O2309       O  0.50410447  0.78468360  0.94391839    -0.69600
O2310       O  0.50839116  0.70219589  0.55285001    -2.30500
O2311       O  0.50082228  0.79498609  0.54149937    -2.26700
O2312       O  0.50961476  0.69250034  0.95272770    -0.71300
H2313       H  0.93208974  0.74094450  0.94334797     0.80700
H2314       H  0.51022246  0.68464963  0.57613093     0.81800
H2315       H  0.57020953  0.74278633  0.91275063     0.84000
H2316       H  0.50042992  0.81433373  0.56023768     0.81600
H2317       H  0.98728003  0.63511890  0.53417376     0.44600
H2318       H  0.57714236  0.63392171  0.99583738     0.43600
H2319       H  0.61421424  0.70999663  0.52439522     0.43300
H2320       H  0.60906804  0.78645440  0.92839382     0.41200
H2321       H  0.52722626  0.85087055  0.97029972     0.44400
H2322       H  0.96264785  0.85193368  0.53698837     0.39100
H2323       H  0.89740754  0.77326703  0.56600173     0.45300
H2324       H  0.90012531  0.67373057  0.04318773     0.41700
H2325       H  0.60929855  0.81870143  0.95610717     0.46600
H2326       H  0.92754772  0.84850721  0.52213871     0.45300
H2327       H  0.90015226  0.70009482  0.55595500     0.45400
H2328       H  0.60427647  0.65191033  0.96776517     0.45800
C2329       C  0.63200519  0.62030510  0.69886249     0.47700
H2330       H  0.63710527  0.62117169  0.65726646    -0.01300
C2331       C  0.62053105  0.62003227  0.79579258     0.47700
H2332       H  0.61664877  0.62056785  0.83762756    -0.01300
C2333       C  0.65090436  0.64433373  0.72793341    -0.15000
C2334       C  0.59804872  0.62876852  0.71187328    -0.14800
C2335       C  0.64111061  0.58907761  0.72584482    -0.15200
C2336       C  0.64464243  0.64408814  0.77863631    -0.15100
C2337       C  0.59175443  0.62903749  0.76352022    -0.14700
C2338       C  0.63519508  0.58888143  0.77778500    -0.15000
C2339       C  0.88304529  0.61707215  0.69837492     0.47700
H2340       H  0.88425460  0.61727337  0.65604063    -0.01300
C2341       C  0.88059769  0.61812760  0.79692622     0.47700
H2342       H  0.87866033  0.61827762  0.83914147    -0.01300
C2343       C  0.86194923  0.64234120  0.71961123    -0.15000
C2344       C  0.86910691  0.58658938  0.72205994    -0.14800
C2345       C  0.91470317  0.62500145  0.72291157    -0.15200
C2346       C  0.85990678  0.64230509  0.77104305    -0.15100
C2347       C  0.86940676  0.58677057  0.77482225    -0.14700
C2348       C  0.91325605  0.62674103  0.77558174    -0.15000
C2349       C  0.62533545  0.87188970  0.69998711     0.47700
H2350       H  0.62678077  0.87250753  0.65777051    -0.01300
C2351       C  0.62445771  0.87198735  0.79864991     0.47700
H2352       H  0.62376885  0.87130518  0.84096414    -0.01300
C2353       C  0.64615247  0.84719162  0.72419442    -0.15000
C2354       C  0.63737896  0.90271433  0.72248991    -0.14800
C2355       C  0.59291030  0.86333270  0.72255068    -0.15200
C2356       C  0.64511320  0.84681618  0.77581904    -0.15100
C2357       C  0.63814327  0.90264342  0.77508389    -0.14700
C2358       C  0.59240801  0.86429998  0.77535681    -0.15000
C2359       C  0.87821126  0.87290054  0.79597620     0.47700
H2360       H  0.87523827  0.87104696  0.83792922    -0.01300
C2361       C  0.88421806  0.87819107  0.69786729     0.47700
H2362       H  0.88606186  0.88007339  0.65559683    -0.01300
C2363       C  0.85409817  0.85442468  0.76674245    -0.15000
C2364       C  0.87301152  0.90701050  0.77579348    -0.14800
C2365       C  0.90957343  0.85928820  0.77501968    -0.15200
C2366       C  0.85700409  0.85774209  0.71545349    -0.15100
C2367       C  0.87718269  0.90955245  0.72352128    -0.14700
C2368       C  0.91257809  0.86252601  0.72265842    -0.15000
C2369       C  0.57874089  0.83015450  0.64829371    -0.14200
C2370       C  0.56990978  0.84481982  0.69170986    -0.29400
H2371       H  0.60240531  0.83217259  0.63435772     0.14800
H2372       H  0.54615850  0.84219495  0.70561057     0.15400
C2373       C  0.56939817  0.84829567  0.81049962    -0.14200
C2374       C  0.56175286  0.81753232  0.80747179    -0.29400
H2375       H  0.56453580  0.86022523  0.84601880     0.14800
H2376       H  0.56754945  0.80470845  0.77323175     0.15400
C2377       C  0.56686036  0.64928280  0.78696756    -0.14200
C2378       C  0.55925672  0.64597589  0.83650874    -0.29400
H2379       H  0.55877843  0.66987547  0.76657663     0.14800
H2380       H  0.56654031  0.62474856  0.85625150     0.15400
C2381       C  0.57857810  0.67734695  0.66961473    -0.14200
C2382       C  0.57943102  0.64571771  0.67236480    -0.29400
H2383       H  0.58913138  0.69093418  0.69964044     0.14800
H2384       H  0.56917655  0.63205735  0.64216796     0.15400
C2385       C  0.93882711  0.63936777  0.68804853    -0.14200
C2386       C  0.94930128  0.66919753  0.69141788    -0.29400
H2387       H  0.94271393  0.62723810  0.65239958     0.14800
H2388       H  0.94486418  0.68257038  0.72558060     0.15400
C2389       C  0.92493185  0.66289004  0.84697951    -0.14200
C2390       C  0.93537273  0.64592441  0.80690487    -0.29400
H2391       H  0.90061088  0.66211810  0.85790943     0.14800
H2392       H  0.95978573  0.64713429  0.79598933     0.15400
C2393       C  0.91932732  0.82266553  0.84851791    -0.14200
C2394       C  0.92997967  0.83798594  0.80638599    -0.29400
H2395       H  0.89565859  0.82638250  0.86161133     0.14800
H2396       H  0.95384468  0.83421134  0.79397956     0.15400
C2397       C  0.94320635  0.81558667  0.69007149    -0.14200
C2398       C  0.93510195  0.84625464  0.68732318    -0.29400
H2399       H  0.93739139  0.80173689  0.72374679     0.14800
H2400       H  0.94062198  0.85882485  0.65213281     0.15400
C2401       C  0.85418371  0.56427391  0.81187429    -0.14200
C2402       C  0.82544528  0.55174005  0.80741339    -0.29400
H2403       H  0.86522800  0.56256925  0.84888240     0.14800
H2404       H  0.81297901  0.55382229  0.77186892     0.15400
C2405       C  0.83200016  0.57711513  0.65088335    -0.14200
C2406       C  0.84826187  0.56570498  0.69121012    -0.29400
H2407       H  0.83504514  0.60140509  0.63932501     0.14800
H2408       H  0.84549285  0.54129870  0.70247526     0.15400
C2409       C  0.66388182  0.56338914  0.65200012    -0.14200
C2410       C  0.66627124  0.57054787  0.70114906    -0.29400
H2411       H  0.64215813  0.56873276  0.63279494     0.14800
H2412       H  0.68821109  0.56690743  0.72036987     0.15400
C2413       C  0.67071721  0.54436865  0.81296828    -0.14200
C2414       C  0.65187909  0.56974272  0.81833641    -0.29400
H2415       H  0.67245230  0.53226549  0.77711019     0.14800
H2416       H  0.65017039  0.57952789  0.85626134     0.15400
C2417       C  0.86292110  0.93381074  0.68952189    -0.14200
C2418       C  0.83183831  0.93789506  0.68818073    -0.29400
H2419       H  0.87678744  0.94193484  0.65715167     0.14800
H2420       H  0.81751375  0.92890222  0.71940342     0.15400
C2421       C  0.82979301  0.92153967  0.83618372    -0.14200
C2422       C  0.85425754  0.93052181  0.80617335    -0.29400
H2423       H  0.82401900  0.89683336  0.83873367     0.14800
H2424       H  0.85989293  0.95524577  0.80229552     0.15400
C2425       C  0.65873110  0.92425180  0.80515975    -0.14200
C2426       C  0.67312622  0.91457219  0.84832444    -0.29400
H2427       H  0.66303082  0.94782310  0.79071664     0.14800
H2428       H  0.66902789  0.89100693  0.86270230     0.15400
C2429       C  0.68532379  0.93044451  0.68947946    -0.14200
C2430       C  0.65456294  0.92425815  0.68655984    -0.29400
H2431       H  0.69808854  0.92420829  0.72359001     0.14800
H2432       H  0.64283680  0.92994152  0.65113548     0.15400
C2433       C  0.67238895  0.80525517  0.83340295    -0.11000
C2434       C  0.65987946  0.82360582  0.80608870    -0.12600
C2435       C  0.68046641  0.81065747  0.66788973    -0.11000
C2436       C  0.66475926  0.82643631  0.69495970    -0.12600
C2437       C  0.83120795  0.83504164  0.79157248    -0.11000
C2438       C  0.81439963  0.81910761  0.81768675    -0.12600
C2439       C  0.81804409  0.83323744  0.65210059    -0.11000
C2440       C  0.83541023  0.84516191  0.68091966    -0.12600
C2441       C  0.84080739  0.66345286  0.79844871    -0.11000
C2442       C  0.82516893  0.68013111  0.82398892    -0.12600
C2443       C  0.83627522  0.68503824  0.66220249    -0.11000
C2444       C  0.84816993  0.66583007  0.68866124    -0.12600
C2445       C  0.67967253  0.67261875  0.84311024    -0.11000
C2446       C  0.66270731  0.66060330  0.81392212    -0.12600
C2447       C  0.67561894  0.66230016  0.70482079    -0.11000
C2448       C  0.69522374  0.67624565  0.68098755    -0.12600
loop_ 
_geom_bond_atom_site_label_1 
_geom_bond_atom_site_label_2 
_geom_bond_distance 
_geom_bond_site_symmetry_2 
_ccdc_geom_bond_type 
O1          Zr13   2.413       .  S
O1            C3   1.279       .  A
O2          Zr39   2.417       .  S
O2            C3   1.282       .  A
C3          C306   1.415       .  S
O4         Zr322   2.389       .  S
O4            C6   1.276       .  A
O5          Zr40   2.414       .  S
O5            C6   1.282       .  A
C6          C300   1.405       .  S
O7          Zr16   2.405   1_554  S
O7            C9   1.279       .  A
O8          Zr39   2.379       .  S
O8            C9   1.276       .  A
C9          C301   1.394       .  S
O10        Zr319   2.401       .  S
O10          C12   1.279       .  A
O11         Zr40   2.371       .  S
O11          C12   1.275       .  A
C12         C303   1.388       .  S
Zr13        O316   2.389   1_554  S
Zr13         O14   2.428       .  S
Zr13        O321   2.438       .  S
Zr13         O19   2.351       .  S
Zr13         O45   2.352       .  S
Zr13        O326   2.366   1_554  S
Zr13        O349   2.377   1_554  S
O14          H57   0.990       .  S
O15        Zr319   2.438       .  S
O15         H362   0.990       .  S
O15         H366   0.990       .  S
Zr16        O310   2.420       .  S
Zr16         O17   2.436   1_556  S
Zr16        O324   2.425       .  S
Zr16         O19   2.375   1_556  S
Zr16         O44   2.361   1_556  S
Zr16        O326   2.357       .  S
Zr16        O352   2.354       .  S
O17          H61   0.990       .  S
O17         H364   0.989       .  S
O18        Zr322   2.423       .  S
O18         H357   0.990       .  S
O19         Zr39   2.371       .  S
O20         Zr40   2.377       .  S
O20        Zr319   2.361       .  S
O20        Zr322   2.361       .  S
O20          H47   0.965       .  S
O21         Zr33   2.405       .  S
O21          C23   1.278       .  A
O22         Zr40   2.407       .  S
O22          C23   1.281       .  A
C23         C291   1.407       .  S
O24        Zr342   2.393   1_554  S
O24          C26   1.276       .  A
O25         Zr39   2.398       .  S
O25          C26   1.279       .  A
C26         C297   1.399       .  S
O27         Zr36   2.411       .  S
O27          C29   1.279       .  A
O28         Zr40   2.392       .  S
O28          C29   1.278       .  A
C29         C296   1.406       .  S
O30        Zr339   2.408       .  S
O30          C32   1.280       .  A
O31         Zr39   2.384       .  S
O31          C32   1.277       .  A
C32         C293   1.399       .  S
Zr33        O336   2.396       .  S
Zr33         O35   2.431       .  S
Zr33        O340   2.436       .  S
Zr33         O41   2.365       .  S
Zr33         O43   2.350       .  S
Zr33        O348   2.368       .  S
Zr33        O351   2.353       .  S
O34        Zr339   2.438       .  S
O34         H360   0.990   1_554  S
O34         H365   0.989   1_554  S
O35          H55   0.990       .  S
Zr36        O330   2.412       .  S
Zr36         O37   2.418       .  S
Zr36        O344   2.437       .  S
Zr36         O41   2.351       .  S
Zr36         O46   2.363       .  S
Zr36        O348   2.355       .  S
Zr36        O350   2.364       .  S
O37         H359   0.990       .  S
O38        Zr342   2.434       .  S
O38         H358   0.990       .  S
O38         H368   0.990       .  S
Zr39         O42   2.369       .  S
Zr39         O44   2.382       .  S
Zr39         O45   2.366       .  S
Zr40         O41   2.372       .  S
Zr40         O43   2.375       .  S
Zr40         O46   2.362       .  S
O41          H49   0.965       .  S
O42        Zr339   2.365       .  S
O42        Zr342   2.357   1_554  S
O43        Zr319   2.374       .  S
O44        Zr342   2.363   1_554  S
O44          H48   0.966       .  S
O45        Zr339   2.349       .  S
O45          H50   0.966       .  S
O46        Zr322   2.356       .  S
H51         O324   0.990       .  S
H52         O344   0.990       .  S
H53         O343   0.990   1_554  S
H54         O340   0.990       .  S
H56         O321   0.991       .  S
H58         O323   0.990       .  S
H59         O340   0.990       .  S
H60         O321   0.990       .  S
H62         O344   0.990       .  S
O63         Zr75   2.484       .  S
O63          C65   1.296       .  A
O64        Zr101   2.439       .  S
O64          C65   1.289       .  A
C65         C287   1.492       .  S
O66        Zr384   2.451       .  S
O66          C68   1.291       .  A
O67        Zr102   2.447       .  S
O67          C68   1.293       .  A
C68         C279   1.488       .  S
O69         Zr78   2.422   1_554  S
O69          C71   1.282       .  A
O70        Zr101   2.479       .  S
O70          C71   1.297       .  A
C71         C276   1.485       .  S
O72        Zr381   2.458       .  S
O72          C74   1.291       .  A
O73        Zr102   2.457       .  S
O73          C74   1.292       .  A
C74         C284   1.492       .  S
Zr75        O378   2.453   1_554  S
Zr75         O76   2.425       .  S
Zr75        O383   2.435       .  S
Zr75         O81   2.382       .  S
Zr75        O107   2.358       .  S
Zr75        O388   2.397   1_554  S
Zr75        O411   2.363   1_554  S
O76         H119   0.990       .  S
O77        Zr381   2.436       .  S
O77         H424   0.990       .  S
O77         H428   0.990       .  S
Zr78        O372   2.410       .  S
Zr78         O79   2.430       .  S
Zr78        O386   2.434       .  S
Zr78         O81   2.373   1_556  S
Zr78        O106   2.357   1_556  S
Zr78        O388   2.377       .  S
Zr78        O414   2.352       .  S
O79         H123   0.990   1_556  S
O79         H426   0.990       .  S
O80        Zr384   2.437       .  S
O80         H419   0.990       .  S
O81        Zr101   2.399       .  S
O82        Zr102   2.417       .  S
O82        Zr381   2.379       .  S
O82        Zr384   2.399       .  S
O82         H109   0.967       .  S
O83         Zr95   2.447       .  S
O83          C85   1.290       .  A
O84        Zr714   2.470   1_545  S
O84          C85   1.295       .  A
C85         C271   1.502       .  S
O86        Zr404   2.453   1_554  S
O86          C88   1.288       .  A
O87        Zr713   2.457       .  S
O87          C88   1.291       .  A
C88         C263   1.482       .  S
O89         Zr98   2.449       .  S
O89          C91   1.289       .  A
O90        Zr714   2.446   1_545  S
O90          C91   1.290       .  A
C91         C260   1.487       .  S
O92        Zr401   2.431   1_554  S
O92          C94   1.286       .  A
O93        Zr713   2.478       .  S
O93          C94   1.297       .  A
C94         C267   1.489       .  S
Zr95        O398   2.490       .  S
Zr95        O402   2.431       .  S
Zr95        O403   2.435       .  S
Zr95        O103   2.388       .  S
Zr95        O410   2.382       .  S
Zr95       O1025   2.356   1_545  S
Zr95        O717   2.379   1_545  S
O96        Zr401   2.430       .  S
O96         H422   0.990       .  S
O96         H427   0.990       .  S
O97        Zr401   2.435       .  S
O97         H423   0.990       .  S
Zr98        O392   2.437       .  S
Zr98         O99   2.433       .  S
Zr98        O406   2.438       .  S
Zr98        O103   2.368       .  S
Zr98        O410   2.388       .  S
Zr98        O720   2.365   1_545  S
Zr98       O1024   2.370   1_545  S
O99         H421   0.990       .  S
O100       Zr404   2.443       .  S
O100        H420   0.991       .  S
O100        H430   0.990       .  S
Zr101       O699   2.441       .  S
Zr101       O705   2.462       .  S
Zr101       O106   2.379       .  S
Zr101       O107   2.396       .  S
Zr101       O716   2.407       .  S
Zr102       O696   2.495       .  S
Zr102       O702   2.460       .  S
Zr102       O105   2.379       .  S
Zr102       O108   2.390       .  S
Zr102       O715   2.397       .  S
O103       Zr714   2.404   1_545  S
O103        H111   0.965       .  S
O104       Zr401   2.386   1_554  S
O104       Zr404   2.370   1_554  S
O104       Zr713   2.405       .  S
O105       Zr381   2.362       .  S
O105       Zr707   2.363       .  S
O106      Zr1016   2.357   1_554  S
O106        H110   0.965       .  S
O107      Zr1013   2.360       .  S
O107        H112   0.965       .  S
O108       Zr384   2.371       .  S
O108       Zr710   2.350       .  S
H113        O386   0.991       .  S
H114        O406   0.990       .  S
H115        O405   0.990       .  S
H116        O402   0.990       .  S
H117        O403   0.990       .  S
H118        O383   0.990       .  S
H120        O385   0.990       .  S
H121        O402   0.990       .  S
H122        O383   0.990       .  S
H124        O406   0.990       .  S
O125       Zr137   2.486       .  S
O125        C127   1.296       .  A
O126      Zr1387   2.466       .  S
O126        C127   1.295       .  A
C127        C255   1.506       .  S
O128       Zr446   2.439       .  S
O128        C130   1.287       .  A
O129      Zr1388   2.477       .  S
O129        C130   1.297       .  A
C130        C247   1.495       .  S
O131       Zr140   2.444       .  S
O131        C133   1.290       .  A
O132      Zr1387   2.428       .  S
O132        C133   1.286       .  A
C133        C244   1.485       .  S
O134       Zr443   2.449       .  S
O134        C136   1.289       .  A
O135      Zr1388   2.442       .  S
O135        C136   1.288       .  A
C136        C251   1.477       .  S
Zr137       O440   2.503   1_554  S
Zr137       O138   2.425       .  S
Zr137       O445   2.436   1_554  S
Zr137       O143   2.393       .  S
Zr137       O450   2.390   1_554  S
Zr137      O1697   2.357   1_554  S
Zr137      O1393   2.379       .  S
O138        H181   0.990       .  S
O139       Zr443   2.438       .  S
O139        H486   0.990       .  S
O139        H490   0.990       .  S
Zr140       O434   2.454   1_554  S
Zr140       O141   2.429       .  S
Zr140       O448   2.435       .  S
Zr140       O143   2.382       .  S
Zr140       O450   2.383   1_554  S
Zr140      O1392   2.359       .  S
Zr140      O1700   2.364   1_554  S
O141        H185   0.990       .  S
O141        H488   0.990       .  S
O142       Zr446   2.434       .  S
O142        H481   0.990       .  S
O143      Zr1387   2.405       .  S
O144       Zr443   2.379       .  S
O144       Zr446   2.385       .  S
O144      Zr1388   2.409       .  S
O144        H171   0.967       .  S
O145       Zr157   2.462       .  S
O145        C147   1.291       .  A
O146       Zr164   2.459   1_455  S
O146        C147   1.293       .  A
C147        C232   1.500       .  S
O148       Zr466   2.463   1_554  S
O148        C150   1.292       .  A
O149       Zr163   2.460       .  S
O149        C150   1.292       .  A
C150        C239   1.489       .  S
O151       Zr160   2.469       .  S
O151        C153   1.292       .  A
O152       Zr164   2.458   1_455  S
O152        C153   1.292       .  A
C153        C236   1.500       .  S
O154       Zr463   2.460   1_554  S
O154        C156   1.291       .  A
O155       Zr163   2.449       .  S
O155        C156   1.290       .  A
C156        C227   1.480       .  S
Zr157       O460   2.456       .  S
Zr157       O158   2.431       .  S
Zr157       O159   2.433       .  S
Zr157       O165   2.381       .  S
Zr157       O167   2.366   1_455  S
Zr157       O472   2.394       .  S
Zr157       O475   2.371       .  S
O158        H178   0.990       .  S
O158        H183   0.990       .  S
O159        H179   0.990       .  S
Zr160       O454   2.439       .  S
Zr160       O161   2.431       .  S
Zr160       O468   2.439       .  S
Zr160       O165   2.372       .  S
Zr160       O170   2.365       .  S
Zr160       O472   2.393       .  S
Zr160       O474   2.375       .  S
O161        H483   0.990       .  S
O162       Zr466   2.437       .  S
O162        H482   0.990       .  S
O162        H492   0.990       .  S
Zr163      O1350   2.474   1_455  S
Zr163      O1356   2.434   1_455  S
Zr163       O166   2.411       .  S
Zr163       O168   2.398       .  S
Zr163       O169   2.392       .  S
Zr163      O1367   2.396   1_455  S
Zr164      O1353   2.482       .  S
Zr164      O1359   2.457       .  S
Zr164       O165   2.399   1_655  S
Zr164       O167   2.396       .  S
Zr164       O170   2.390   1_655  S
Zr164      O1368   2.417       .  S
O165        H173   0.966       .  S
O166       Zr463   2.384   1_554  S
O166       Zr466   2.384   1_554  S
O167      Zr1667   2.376       .  S
O168      Zr1364   2.358   1_455  S
O168       Zr466   2.368   1_554  S
O168        H172   0.965       .  S
O169      Zr1361   2.363   1_455  S
O169       Zr463   2.370   1_554  S
O169        H174   0.965       .  S
O170      Zr1670   2.369   1_455  S
H175        O448   0.990   1_556  S
H176        O468   0.990       .  S
H177        O467   0.990       .  S
H180        O445   0.990   1_554  S
H182        O447   0.990       .  S
H184        O445   0.990   1_554  S
H186        O468   0.990       .  S
C187        H188   1.108       .  S
C187        C193   1.564       .  S
C187        C192   1.560       .  S
C187        C191   1.517       .  S
C189        H190   1.113       .  S
C189        C195   1.537       .  S
C189        C194   1.519       .  S
C189        C196   1.546       .  S
C191        C194   1.353       .  D
C191        C305   1.429       .  S
C192        C195   1.384       .  D
C192        C240   1.512       .  S
C193        C196   1.389       .  D
C193        C268   1.506       .  S
C194        C304   1.401       .  S
C195        C235   1.508       .  S
C196        C272   1.518       .  S
C197        H198   1.112       .  S
C197        C203   1.547       .  S
C197        C202   1.535       .  S
C197        C201   1.515       .  S
C199        H200   1.111       .  S
C199        C205   1.553       .  S
C199        C204   1.522       .  S
C199        C206   1.551       .  S
C201        C204   1.350       .  D
C201        C302   1.410       .  S
C202        C205   1.381       .  D
C202        C264   1.506       .  S
C203        C206   1.390       .  D
C203        C243   1.500       .  S
C204        C299   1.419       .  S
C205        C259   1.498       .  S
C206        C248   1.508       .  S
C207        H208   1.112       .  S
C207        C213   1.547       .  S
C207        C212   1.540       .  S
C207        C211   1.517       .  S
C209        H210   1.110       .  S
C209        C215   1.556       .  S
C209        C214   1.522       .  S
C209        C216   1.552       .  S
C211        C214   1.352       .  D
C211        C294   1.412       .  S
C212        C215   1.382       .  D
C212        C288   1.499       .  S
C213        C216   1.387       .  D
C213        C228   1.508       .  S
C214        C292   1.421       .  S
C215        C283   1.513       .  S
C216        C231   1.508       .  S
C217        H218   1.110       .  S
C217        C223   1.547       .  S
C217        C222   1.546       .  S
C217        C221   1.519       .  S
C219        H220   1.112       .  S
C219        C225   1.553       .  S
C219        C224   1.519       .  S
C219        C226   1.552       .  S
C221        C224   1.352       .  D
C221        C295   1.420       .  S
C222        C225   1.390       .  D
C222        C280   1.516       .  S
C223        C226   1.384       .  D
C223        C252   1.504       .  S
C224        C298   1.411       .  S
C225        C275   1.498       .  S
C226        C256   1.517       .  S
C227        C228   1.358       .  D
C227        H229   1.082       .  S
C228        H230   1.086       .  S
C231        C232   1.357       .  D
C231        H233   1.086       .  S
C232        H234   1.083       .  S
C235        C236   1.356       .  D
C235        H237   1.086       .  S
C236        H238   1.084       .  S
C239        C240   1.359       .  D
C239        H241   1.083       .  S
C240        H242   1.086       .  S
C243        C244   1.349       .  D
C243        H245   1.085       .  S
C244        H246   1.078       .  S
C247        C248   1.345       .  D
C247        H249   1.087       .  S
C248        H250   1.083       .  S
C251        C252   1.356       .  D
C251        H253   1.084       .  S
C252        H254   1.086       .  S
C255        C256   1.360       .  D
C255        H257   1.083       .  S
C256        H258   1.086       .  S
C259        C260   1.353       .  D
C259        H261   1.086       .  S
C260        H262   1.082       .  S
C263        C264   1.357       .  D
C263        H265   1.084       .  S
C264        H266   1.086       .  S
C267        C268   1.343       .  D
C267        H269   1.087       .  S
C268        H270   1.083       .  S
C271        C272   1.359       .  D
C271        H273   1.082       .  S
C272        H274   1.086       .  S
C275        C276   1.338       .  D
C275        H277   1.085       .  S
C276        H278   1.088       .  S
C279        C280   1.353       .  D
C279        H281   1.075       .  S
C280        H282   1.086       .  S
C283        C284   1.357       .  D
C283        H285   1.086       .  S
C284        H286   1.084       .  S
C287        C288   1.352       .  D
C287        H289   1.086       .  S
C288        H290   1.086       .  S
C291        C292   1.190       .  T
C293        C294   1.185       .  T
C295        C296   1.189       .  T
C297        C298   1.184       .  T
C299        C300   1.189       .  T
C301        C302   1.183       .  T
C303        C304   1.178       .  T
C305        C306   1.195       .  T
O307       Zr319   2.431       .  S
O307        C309   1.283       .  A
O308       Zr345   2.375       .  S
O308        C309   1.273       .  A
C309        C612   1.404       .  S
O310        C312   1.281       .  A
O311       Zr346   2.409       .  S
O311        C312   1.282       .  A
C312        C606   1.417       .  S
O313       Zr322   2.404       .  S
O313        C315   1.279       .  A
O314       Zr345   2.393       .  S
O314        C315   1.278       .  A
C315        C607   1.400       .  S
O316        C318   1.277       .  A
O317       Zr346   2.399       .  S
O317        C318   1.281       .  A
C318        C609   1.395       .  S
Zr319       O320   2.427       .  S
Zr319       O325   2.349       .  S
Zr319       O351   2.358       .  S
O320        H363   0.990       .  S
Zr322       O323   2.437       .  S
Zr322       O325   2.368       .  S
Zr322       O350   2.354       .  S
O323        H367   0.990       .  S
O325       Zr345   2.366       .  S
O326       Zr346   2.379       .  S
O326        H353   0.967       .  S
O327       Zr339   2.415   1_556  S
O327        C329   1.280       .  A
O328       Zr346   2.397       .  S
O328        C329   1.280       .  A
C329        C597   1.406       .  S
O330        C332   1.280       .  A
O331       Zr345   2.361       .  S
O331        C332   1.272       .  A
C332        C603   1.389       .  S
O333       Zr342   2.401       .  S
O333        C335   1.278       .  A
O334       Zr346   2.427       .  S
O334        C335   1.285       .  A
C335        C602   1.418       .  S
O336        C338   1.278       .  A
O337       Zr345   2.387       .  S
O337        C338   1.277       .  A
C338        C599   1.395       .  S
Zr339       O341   2.428       .  S
Zr339       O347   2.362   1_554  S
Zr339       O349   2.357   1_554  S
O341        H361   0.990       .  S
Zr342       O343   2.421       .  S
Zr342       O347   2.345       .  S
Zr342       O352   2.366       .  S
Zr345       O348   2.366       .  S
Zr345       O350   2.374       .  S
Zr345       O351   2.369       .  S
Zr346       O347   2.373       .  S
Zr346       O349   2.381       .  S
Zr346       O352   2.368       .  S
O347        H355   0.966       .  S
O350        H354   0.966       .  S
O351        H356   0.965       .  S
O369       Zr381   2.462       .  S
O369        C371   1.292       .  A
O370       Zr407   2.466       .  S
O370        C371   1.295       .  A
C371        C593   1.497       .  S
O372        C374   1.280       .  A
O373       Zr408   2.511       .  S
O373        C374   1.302       .  A
C374        C585   1.498       .  S
O375       Zr384   2.490       .  S
O375        C377   1.297       .  A
O376       Zr407   2.425       .  S
O376        C377   1.286       .  A
C377        C582   1.495       .  S
O378        C380   1.291       .  A
O379       Zr408   2.473       .  S
O379        C380   1.296       .  A
C380        C590   1.492       .  S
Zr381       O382   2.422       .  S
Zr381       O387   2.382       .  S
Zr381       O413   2.370       .  S
O382        H425   0.990       .  S
Zr384       O385   2.430       .  S
Zr384       O387   2.377       .  S
Zr384       O412   2.355       .  S
O385        H429   0.990       .  S
O387       Zr407   2.395       .  S
O388       Zr408   2.424       .  S
O388        H415   0.966       .  S
O389       Zr401   2.422       .  S
O389        C391   1.282       .  A
O390      Zr1020   2.518   1_545  S
O390        C391   1.304       .  A
C391        C577   1.506       .  S
O392        C394   1.286       .  A
O393      Zr1019   2.473   1_545  S
O393        C394   1.296       .  A
C394        C569   1.485       .  S
O395       Zr404   2.411       .  S
O395        C397   1.278       .  A
O396      Zr1020   2.506   1_545  S
O396        C397   1.302       .  A
C397        C566   1.491       .  S
O398        C400   1.297       .  A
O399      Zr1019   2.409   1_545  S
O399        C400   1.284       .  A
C400        C573   1.483       .  S
Zr401       O409   2.380       .  S
Zr401       O719   2.368   1_546  S
Zr401      O1023   2.362   1_545  S
Zr404       O405   2.432       .  S
Zr404       O409   2.385       .  S
Zr404      O1026   2.368       .  S
Zr404       O718   2.363   1_556  S
Zr407      O1005   2.452       .  S
Zr407      O1011   2.429       .  S
Zr407      O1022   2.397       .  S
Zr407       O412   2.383       .  S
Zr407       O413   2.384       .  S
Zr408      O1002   2.512       .  S
Zr408      O1008   2.516       .  S
Zr408      O1021   2.426       .  S
Zr408       O411   2.406       .  S
Zr408       O414   2.387       .  S
O409      Zr1020   2.415   1_545  S
O409        H417   0.966       .  S
O410      Zr1019   2.401   1_545  S
O411      Zr1013   2.360   1_556  S
O412       Zr710   2.371       .  S
O412        H416   0.965       .  S
O413       Zr707   2.349       .  S
O413        H418   0.966       .  S
O414      Zr1016   2.364       .  S
O431       Zr443   2.454       .  S
O431        C433   1.289       .  A
O432      Zr1693   2.491       .  S
O432        C433   1.297       .  A
C433        C561   1.499       .  S
O434        C436   1.290       .  A
O435      Zr1694   2.471       .  S
O435        C436   1.294       .  A
C436        C553   1.496       .  S
O437       Zr446   2.463       .  S
O437        C439   1.292       .  A
O438      Zr1693   2.459       .  S
O438        C439   1.293       .  A
C439        C550   1.497       .  S
O440        C442   1.299       .  A
O441      Zr1694   2.422       .  S
O441        C442   1.286       .  A
C442        C557   1.496       .  S
Zr443       O444   2.424       .  S
Zr443       O449   2.371       .  S
Zr443      O1391   2.370       .  S
Zr443      O1699   2.366       .  S
O444        H487   0.990       .  S
Zr446       O447   2.426       .  S
Zr446       O449   2.376       .  S
Zr446      O1698   2.346       .  S
Zr446      O1394   2.371       .  S
O447        H491   0.990       .  S
O449      Zr1693   2.402       .  S
O450      Zr1694   2.402       .  S
O450        H477   0.966       .  S
O451       Zr463   2.454       .  S
O451        C453   1.291       .  A
O452       Zr470   2.460   1_455  S
O452        C453   1.293       .  A
C453        C538   1.501       .  S
O454        C456   1.288       .  A
O455       Zr469   2.466       .  S
O455        C456   1.294       .  A
C456        C545   1.484       .  S
O457       Zr466   2.466       .  S
O457        C459   1.292       .  A
O458       Zr470   2.469   1_455  S
O458        C459   1.295       .  A
C459        C542   1.509       .  S
O460        C462   1.291       .  A
O461       Zr469   2.491       .  S
O461        C462   1.299       .  A
C462        C533   1.506       .  S
Zr463       O464   2.431       .  S
Zr463       O465   2.436       .  S
Zr463       O471   2.385       .  S
Zr463       O473   2.364   1_455  S
O464        H484   0.990       .  S
O464        H489   0.990       .  S
O465        H485   0.990       .  S
Zr466       O467   2.430       .  S
Zr466       O471   2.378       .  S
Zr466       O476   2.371       .  S
Zr469      O1656   2.445   1_455  S
Zr469      O1662   2.461   1_455  S
Zr469      O1673   2.402   1_455  S
Zr469       O472   2.412       .  S
Zr469       O474   2.402       .  S
Zr469       O475   2.398       .  S
Zr470      O1659   2.462       .  S
Zr470      O1665   2.466       .  S
Zr470      O1674   2.406       .  S
Zr470       O471   2.404   1_655  S
Zr470       O473   2.389       .  S
Zr470       O476   2.390   1_655  S
O471        H479   0.966       .  S
O473      Zr1361   2.365   1_556  S
O474      Zr1670   2.354   1_455  S
O474        H478   0.966       .  S
O475      Zr1667   2.363   1_455  S
O475        H480   0.964       .  S
O476      Zr1364   2.364   1_456  S
C493        H494   1.110       .  S
C493        C499   1.538       .  S
C493        C498   1.544       .  S
C493        C497   1.519       .  S
C495        H496   1.112       .  S
C495        C501   1.567       .  S
C495        C500   1.513       .  S
C495        C502   1.563       .  S
C497        C500   1.352       .  D
C497        C611   1.416       .  S
C498        C501   1.390       .  D
C498        C546   1.507       .  S
C499        C502   1.392       .  D
C499        C574   1.510       .  S
C500        C610   1.407       .  S
C501        C541   1.526       .  S
C502        C578   1.524       .  S
C503        H504   1.112       .  S
C503        C509   1.541       .  S
C503        C508   1.540       .  S
C503        C507   1.525       .  S
C505        H506   1.108       .  S
C505        C511   1.565       .  S
C505        C510   1.519       .  S
C505        C512   1.564       .  S
C507        C510   1.356       .  D
C507        C608   1.413       .  S
C508        C511   1.374       .  D
C508        C570   1.505       .  S
C509        C512   1.388       .  D
C509        C549   1.502       .  S
C510        C605   1.429       .  S
C511        C565   1.511       .  S
C512        C554   1.520       .  S
C513        H514   1.109       .  S
C513        C519   1.559       .  S
C513        C518   1.550       .  S
C513        C517   1.518       .  S
C515        H516   1.111       .  S
C515        C521   1.550       .  S
C515        C520   1.517       .  S
C515        C522   1.559       .  S
C517        C520   1.351       .  D
C517        C600   1.409       .  S
C518        C521   1.381       .  D
C518        C594   1.507       .  S
C519        C522   1.398       .  D
C519        C534   1.526       .  S
C520        C598   1.420       .  S
C521        C589   1.515       .  S
C522        C537   1.517       .  S
C523        H524   1.112       .  S
C523        C529   1.554       .  S
C523        C528   1.562       .  S
C523        C527   1.526       .  S
C525        H526   1.113       .  S
C525        C531   1.547       .  S
C525        C530   1.514       .  S
C525        C532   1.544       .  S
C527        C530   1.354       .  D
C527        C601   1.432       .  S
C528        C531   1.392       .  D
C528        C586   1.515       .  S
C529        C532   1.386       .  D
C529        C558   1.505       .  S
C530        C604   1.402       .  S
C531        C581   1.516       .  S
C532        C562   1.522       .  S
C533        C534   1.356       .  D
C533        H535   1.085       .  S
C534        H536   1.081       .  S
C537        C538   1.355       .  D
C537        H539   1.086       .  S
C538        H540   1.081       .  S
C541        C542   1.361       .  D
C541        H543   1.086       .  S
C542        H544   1.082       .  S
C545        C546   1.347       .  D
C545        H547   1.087       .  S
C546        H548   1.081       .  S
C549        C550   1.354       .  D
C549        H551   1.086       .  S
C550        H552   1.085       .  S
C553        C554   1.361       .  D
C553        H555   1.082       .  S
C554        H556   1.086       .  S
C557        C558   1.352       .  D
C557        H559   1.086       .  S
C558        H560   1.086       .  S
C561        C562   1.363       .  D
C561        H563   1.085       .  S
C562        H564   1.085       .  S
C565        C566   1.336       .  D
C565        H567   1.086       .  S
C566        H568   1.087       .  S
C569        C570   1.350       .  D
C569        H571   1.085       .  S
C570        H572   1.087       .  S
C573        C574   1.340       .  D
C573        H575   1.081       .  S
C574        H576   1.087       .  S
C577        C578   1.348       .  D
C577        H579   1.087       .  S
C578        H580   1.086       .  S
C581        C582   1.347       .  D
C581        H583   1.087       .  S
C582        H584   1.082       .  S
C585        C586   1.344       .  D
C585        H587   1.088       .  S
C586        H588   1.085       .  S
C589        C590   1.358       .  D
C589        H591   1.086       .  S
C590        H592   1.084       .  S
C593        C594   1.358       .  D
C593        H595   1.083       .  S
C594        H596   1.086       .  S
C597        C598   1.190       .  T
C599        C600   1.182       .  T
C601        C602   1.196       .  T
C603        C604   1.179       .  T
C605        C606   1.195       .  T
C607        C608   1.186       .  T
C609        C610   1.182       .  T
C611        C612   1.187       .  T
O613       Zr625   2.413       .  S
O613        C615   1.280       .  A
O614       Zr651   2.395       .  S
O614        C615   1.278       .  A
C615        C918   1.407       .  S
O616       Zr934   2.393       .  S
O616        C618   1.276       .  A
O617       Zr652   2.387       .  S
O617        C618   1.277       .  A
C618        C912   1.393       .  S
O619       Zr628   2.410   1_554  S
O619        C621   1.280       .  A
O620       Zr651   2.405       .  S
O620        C621   1.281       .  A
C621        C913   1.409       .  S
O622       Zr931   2.396       .  S
O622        C624   1.278       .  A
O623       Zr652   2.401       .  S
O623        C624   1.281       .  A
C624        C915   1.400       .  S
Zr625       O928   2.396   1_554  S
Zr625       O626   2.426       .  S
Zr625       O933   2.435       .  S
Zr625       O631   2.348       .  S
Zr625       O938   2.363   1_554  S
Zr625       O961   2.377   1_554  S
Zr625       O657   2.351       .  S
O626        H669   0.990       .  S
O627       Zr931   2.436       .  S
O627        H974   0.990       .  S
O627        H978   0.990       .  S
Zr628       O922   2.411       .  S
Zr628       O629   2.438       .  S
Zr628       O936   2.423       .  S
Zr628       O938   2.357       .  S
Zr628       O631   2.365   1_556  S
Zr628       O656   2.361   1_556  S
Zr628       O964   2.355       .  S
O629        H976   0.989   1_556  S
O629        H673   0.990   1_556  S
O630       Zr934   2.421       .  S
O630        H969   0.990       .  S
O631       Zr651   2.360       .  S
O632       Zr931   2.361       .  S
O632       Zr934   2.356       .  S
O632       Zr652   2.377       .  S
O632        H659   0.965       .  S
O633       Zr645   2.407       .  S
O633        C635   1.279       .  A
O634       Zr652   2.393       .  S
O634        C635   1.279       .  A
C635        C903   1.401       .  S
O636       Zr954   2.393   1_554  S
O636        C638   1.277       .  A
O637       Zr651   2.372       .  S
O637        C638   1.275       .  A
C638        C909   1.386       .  S
O639       Zr648   2.419       .  S
O639        C641   1.280       .  A
O640       Zr652   2.421       .  S
O640        C641   1.283       .  A
C641        C908   1.422       .  S
O642       Zr951   2.402   1_554  S
O642        C644   1.279       .  A
O643       Zr651   2.391       .  S
O643        C644   1.278       .  A
C644        C905   1.399       .  S
Zr645       O948   2.399       .  S
Zr645       O952   2.437       .  S
Zr645       O647   2.426       .  S
Zr645       O653   2.365       .  S
Zr645       O960   2.368       .  S
Zr645       O963   2.357       .  S
Zr645       O655   2.355       .  S
O646       Zr951   2.436       .  S
O646        H972   0.990       .  S
O646        H977   0.989       .  S
O647        H667   0.990       .  S
Zr648       O942   2.418       .  S
Zr648       O649   2.425       .  S
Zr648       O956   2.436       .  S
Zr648       O960   2.361       .  S
Zr648       O653   2.352       .  S
Zr648       O658   2.365       .  S
Zr648       O962   2.372       .  S
O649        H971   0.990       .  S
O650       Zr954   2.434       .  S
O650        H970   0.990       .  S
O650        H980   0.990       .  S
Zr651       O654   2.372       .  S
Zr651       O656   2.379       .  S
Zr651       O657   2.369       .  S
Zr652       O653   2.375       .  S
Zr652       O655   2.373       .  S
Zr652       O658   2.367       .  S
O653        H661   0.965       .  S
O654       Zr951   2.365   1_554  S
O654       Zr954   2.357   1_554  S
O655       Zr931   2.374       .  S
O656       Zr954   2.370   1_554  S
O656        H660   0.966       .  S
O657       Zr951   2.355   1_554  S
O657        H662   0.965       .  S
O658       Zr934   2.357       .  S
H663        O936   0.990       .  S
H664        O956   0.989       .  S
H665        O955   0.990       .  S
H666        O952   0.990       .  S
H668        O933   0.990       .  S
H670        O935   0.988       .  S
H671        O952   0.990       .  S
H672        O933   0.990       .  S
H674        O956   0.990       .  S
O675       Zr687   2.491       .  S
O675        C677   1.297       .  A
O676       Zr713   2.434   1_565  S
O676        C677   1.288       .  A
C677        C899   1.496       .  S
O678       Zr996   2.424       .  S
O678        C680   1.284       .  A
O679       Zr714   2.493       .  S
O679        C680   1.300       .  A
C680        C891   1.496       .  S
O681       Zr690   2.449       .  S
O681        C683   1.290       .  A
O682       Zr713   2.464   1_565  S
O682        C683   1.294       .  A
C683        C888   1.501       .  S
O684       Zr993   2.465       .  S
O684        C686   1.292       .  A
O685       Zr714   2.450       .  S
O685        C686   1.290       .  A
C686        C896   1.489       .  S
Zr687       O990   2.460   1_554  S
Zr687       O688   2.431       .  S
Zr687       O995   2.437       .  S
Zr687       O693   2.377       .  S
Zr687      O1000   2.388   1_554  S
Zr687      O1023   2.374   1_554  S
Zr687       O719   2.362       .  S
O688        H731   0.990       .  S
O689       Zr993   2.438       .  S
O689       H1036   0.990       .  S
O689       H1040   0.990       .  S
Zr690       O984   2.427   1_554  S
Zr690       O691   2.431       .  S
Zr690       O998   2.434       .  S
Zr690      O1000   2.384   1_554  S
Zr690       O693   2.371       .  S
Zr690       O718   2.360   1_565  S
Zr690      O1026   2.360   1_564  S
O691       H1038   0.990       .  S
O691        H735   0.990       .  S
O692       Zr996   2.434       .  S
O692       H1031   0.990       .  S
O693       Zr713   2.401   1_565  S
O694       Zr993   2.386       .  S
O694       Zr996   2.396       .  S
O694       Zr714   2.411       .  S
O694        H721   0.965       .  S
O695       Zr707   2.408       .  S
O695        C697   1.280       .  A
O696        C697   1.299       .  A
C697        C883   1.490       .  S
O698      Zr1016   2.444   1_554  S
O698        C700   1.287       .  A
O699        C700   1.288       .  A
C700        C875   1.474       .  S
O701       Zr710   2.445       .  S
O701        C703   1.286       .  A
O702        C703   1.293       .  A
C703        C872   1.491       .  S
O704      Zr1013   2.444       .  S
O704        C706   1.288       .  A
O705        C706   1.294       .  A
C706        C879   1.485       .  S
Zr707      O1010   2.445       .  S
Zr707      O1014   2.431       .  S
Zr707      O1015   2.434       .  S
Zr707       O715   2.385       .  S
Zr707      O1022   2.377       .  S
O708      Zr1013   2.427   1_556  S
O708       H1034   0.990       .  S
O708       H1039   0.990       .  S
O709      Zr1013   2.436       .  S
O709       H1035   0.990       .  S
Zr710      O1004   2.435       .  S
Zr710       O711   2.430       .  S
Zr710      O1018   2.439       .  S
Zr710      O1022   2.382       .  S
Zr710       O715   2.379       .  S
O711       H1033   0.990       .  S
O712      Zr1016   2.438   1_554  S
O712       H1032   0.990   1_554  S
O712       H1042   0.990   1_554  S
Zr713       O718   2.384       .  S
Zr713       O719   2.401   1_545  S
Zr714       O717   2.393       .  S
Zr714       O720   2.390       .  S
O715        H723   0.968       .  S
O716      Zr1013   2.378       .  S
O716      Zr1016   2.361   1_554  S
O717       Zr993   2.366       .  S
O718        H722   0.964       .  S
O719        H724   0.966       .  S
O720       Zr996   2.376       .  S
H725        O998   0.990       .  S
H726       O1018   0.990       .  S
H727       O1017   0.990       .  S
H728       O1014   0.990       .  S
H729       O1015   0.990       .  S
H730        O995   0.990       .  S
H732        O997   0.990       .  S
H733       O1014   0.990       .  S
H734        O995   0.991       .  S
H736       O1018   0.990       .  S
O737       Zr749   2.491       .  S
O737        C739   1.297       .  A
O738      Zr1999   2.446       .  S
O738        C739   1.290       .  A
C739        C867   1.500       .  S
O740      Zr1058   2.442       .  S
O740        C742   1.288       .  A
O741      Zr2000   2.469       .  S
O741        C742   1.295       .  A
C742        C859   1.493       .  S
O743       Zr752   2.449       .  S
O743        C745   1.291       .  A
O744      Zr1999   2.445       .  S
O744        C745   1.289       .  A
C745        C856   1.491       .  S
O746      Zr1055   2.448       .  S
O746        C748   1.288       .  A
O747      Zr2000   2.469       .  S
O747        C748   1.294       .  A
C748        C863   1.489       .  S
Zr749      O1052   2.493   1_554  S
Zr749       O750   2.429       .  S
Zr749      O1057   2.438   1_554  S
Zr749       O755   2.389       .  S
Zr749      O1062   2.394   1_554  S
Zr749      O2309   2.365   1_554  S
Zr749      O2005   2.368       .  S
O750        H793   0.990       .  S
O751      Zr1055   2.435       .  S
O751       H1098   0.990       .  S
O751       H1102   0.990       .  S
Zr752      O1046   2.453   1_554  S
Zr752       O753   2.426       .  S
Zr752      O1060   2.434       .  S
Zr752      O1062   2.376   1_554  S
Zr752       O755   2.378       .  S
Zr752      O2004   2.364       .  S
Zr752      O2312   2.369   1_554  S
O753       H1100   0.990       .  S
O753        H797   0.990       .  S
O754      Zr1058   2.433       .  S
O754       H1093   0.990       .  S
O755      Zr1999   2.404       .  S
O756      Zr1055   2.384       .  S
O756      Zr1058   2.389       .  S
O756      Zr2000   2.409       .  S
O756        H783   0.967       .  S
O757       Zr769   2.436       .  S
O757        C759   1.289       .  A
O758       Zr776   2.460   1_455  S
O758        C759   1.293       .  A
C759        C844   1.495       .  S
O760      Zr1078   2.428   1_554  S
O760        C762   1.285       .  A
O761       Zr775   2.463       .  S
O761        C762   1.294       .  A
C762        C851   1.480       .  S
O763       Zr772   2.456       .  S
O763        C765   1.290       .  A
O764       Zr776   2.465   1_455  S
O764        C765   1.293       .  A
C765        C848   1.504       .  S
O766      Zr1075   2.435   1_554  S
O766        C768   1.287       .  A
O767       Zr775   2.472       .  S
O767        C768   1.296       .  A
C768        C839   1.488       .  S
Zr769      O1072   2.443       .  S
Zr769       O770   2.430       .  S
Zr769       O771   2.433       .  S
Zr769       O777   2.380       .  S
Zr769      O1084   2.378       .  S
Zr769      O1087   2.366       .  S
Zr769       O779   2.362   1_455  S
O770        H790   0.990       .  S
O770        H795   0.990       .  S
O771        H791   0.990       .  S
Zr772      O1066   2.438       .  S
Zr772       O773   2.430       .  S
Zr772      O1080   2.440       .  S
Zr772      O1084   2.383       .  S
Zr772       O777   2.370       .  S
Zr772       O782   2.365       .  S
Zr772      O1086   2.377       .  S
O773       H1095   0.990       .  S
O774      Zr1078   2.438       .  S
O774       H1094   0.990       .  S
O774       H1104   0.990       .  S
Zr775      O1962   2.463   1_455  S
Zr775      O1968   2.444   1_455  S
Zr775      O1979   2.401   1_455  S
Zr775       O778   2.407       .  S
Zr775       O780   2.395       .  S
Zr775       O781   2.388       .  S
Zr776      O1965   2.476       .  S
Zr776      O1971   2.460       .  S
Zr776      O1980   2.415       .  S
Zr776       O777   2.401   1_655  S
Zr776       O779   2.388       .  S
Zr776       O782   2.389   1_655  S
O777        H785   0.966       .  S
O778      Zr1075   2.384   1_554  S
O778      Zr1078   2.388   1_554  S
O779      Zr2279   2.364       .  S
O780      Zr1976   2.354   1_455  S
O780      Zr1078   2.361   1_554  S
O780        H784   0.965       .  S
O781      Zr1973   2.358   1_455  S
O781      Zr1075   2.366   1_554  S
O781        H786   0.965       .  S
O782      Zr2282   2.365   1_455  S
H787       O1060   0.990   1_556  S
H788       O1080   0.991       .  S
H789       O1079   0.990       .  S
H792       O1057   0.990   1_554  S
H794       O1059   0.989       .  S
H796       O1057   0.990   1_554  S
H798       O1080   0.991       .  S
C799        H800   1.110       .  S
C799        C805   1.541       .  S
C799        C804   1.554       .  S
C799        C803   1.524       .  S
C801        H802   1.107       .  S
C801        C807   1.553       .  S
C801        C806   1.513       .  S
C801        C808   1.558       .  S
C803        C806   1.350       .  D
C803        C917   1.422       .  S
C804        C807   1.384       .  D
C804        C852   1.500       .  S
C805        C808   1.385       .  D
C805        C880   1.498       .  S
C806        C916   1.413       .  S
C807        C847   1.516       .  S
C808        C884   1.516       .  S
C809        H810   1.112       .  S
C809        C815   1.547       .  S
C809        C814   1.542       .  S
C809        C813   1.518       .  S
C811        H812   1.111       .  S
C811        C817   1.546       .  S
C811        C816   1.520       .  S
C811        C818   1.555       .  S
C813        C816   1.351       .  D
C813        C914   1.424       .  S
C814        C817   1.375       .  D
C814        C876   1.499       .  S
C815        C818   1.393       .  D
C815        C855   1.507       .  S
C816        C911   1.407       .  S
C817        C871   1.500       .  S
C818        C860   1.508       .  S
C819        H820   1.110       .  S
C819        C825   1.552       .  S
C819        C824   1.547       .  S
C819        C823   1.516       .  S
C821        H822   1.110       .  S
C821        C827   1.547       .  S
C821        C826   1.518       .  S
C821        C828   1.553       .  S
C823        C826   1.350       .  D
C823        C906   1.412       .  S
C824        C827   1.386       .  D
C824        C900   1.506       .  S
C825        C828   1.390       .  D
C825        C840   1.508       .  S
C826        C904   1.416       .  S
C827        C895   1.513       .  S
C828        C843   1.510       .  S
C829        H830   1.111       .  S
C829        C835   1.563       .  S
C829        C834   1.569       .  S
C829        C833   1.518       .  S
C831        H832   1.113       .  S
C831        C837   1.541       .  S
C831        C836   1.522       .  S
C831        C838   1.535       .  S
C833        C836   1.355       .  D
C833        C907   1.435       .  S
C834        C837   1.391       .  D
C834        C892   1.505       .  S
C835        C838   1.382       .  D
C835        C864   1.510       .  S
C836        C910   1.401       .  S
C837        C887   1.520       .  S
C838        C868   1.509       .  S
C839        C840   1.345       .  D
C839        H841   1.086       .  S
C840        H842   1.083       .  S
C843        C844   1.355       .  D
C843        H845   1.085       .  S
C844        H846   1.080       .  S
C847        C848   1.358       .  D
C847        H849   1.086       .  S
C848        H850   1.083       .  S
C851        C852   1.342       .  D
C851        H853   1.086       .  S
C852        H854   1.082       .  S
C855        C856   1.350       .  D
C855        H857   1.086       .  S
C856        H858   1.079       .  S
C859        C860   1.347       .  D
C859        H861   1.087       .  S
C860        H862   1.082       .  S
C863        C864   1.356       .  D
C863        H865   1.084       .  S
C864        H866   1.086       .  S
C867        C868   1.354       .  D
C867        H869   1.084       .  S
C868        H870   1.086       .  S
C871        C872   1.358       .  D
C871        H873   1.086       .  S
C872        H874   1.084       .  S
C875        C876   1.351       .  D
C875        H877   1.085       .  S
C876        H878   1.086       .  S
C879        C880   1.354       .  D
C879        H881   1.086       .  S
C880        H882   1.086       .  S
C883        C884   1.341       .  D
C883        H885   1.085       .  S
C884        H886   1.080       .  S
C887        C888   1.358       .  D
C887        H889   1.086       .  S
C888        H890   1.077       .  S
C891        C892   1.341       .  D
C891        H893   1.088       .  S
C892        H894   1.084       .  S
C895        C896   1.362       .  D
C895        H897   1.086       .  S
C896        H898   1.083       .  S
C899        C900   1.352       .  D
C899        H901   1.083       .  S
C900        H902   1.086       .  S
C903        C904   1.187       .  T
C905        C906   1.185       .  T
C907        C908   1.199       .  T
C909        C910   1.178       .  T
C911        C912   1.182       .  T
C913        C914   1.191       .  T
C915        C916   1.185       .  T
C917        C918   1.190       .  T
O919       Zr931   2.419       .  S
O919        C921   1.281       .  A
O920       Zr957   2.421       .  S
O920        C921   1.283       .  A
C921       C1224   1.422       .  S
O922        C924   1.280       .  A
O923       Zr958   2.394       .  S
O923        C924   1.279       .  A
C924       C1218   1.405       .  S
O925       Zr934   2.411       .  S
O925        C927   1.281       .  A
O926       Zr957   2.389       .  S
O926        C927   1.278       .  A
C927       C1219   1.403       .  S
O928        C930   1.278       .  A
O929       Zr958   2.389       .  S
O929        C930   1.279       .  A
C930       C1221   1.393       .  S
Zr931       O932   2.428       .  S
Zr931       O937   2.351       .  S
Zr931       O963   2.355       .  S
O932        H975   0.990       .  S
Zr934       O935   2.438       .  S
Zr934       O937   2.363       .  S
Zr934       O962   2.347       .  S
O935        H979   0.990       .  S
O937       Zr957   2.359       .  S
O938       Zr958   2.380       .  S
O938        H965   0.966       .  S
O939       Zr951   2.418       .  S
O939        C941   1.281       .  A
O940       Zr958   2.404       .  S
O940        C941   1.281       .  A
C941       C1209   1.409       .  S
O942        C944   1.282       .  A
O943       Zr957   2.382       .  S
O943        C944   1.277       .  A
C944       C1215   1.400       .  S
O945       Zr954   2.404       .  S
O945        C947   1.278       .  A
O946       Zr958   2.415       .  S
O946        C947   1.282       .  A
C947       C1214   1.414       .  S
O948        C950   1.278       .  A
O949       Zr957   2.380       .  S
O949        C950   1.276       .  A
C950       C1211   1.394       .  S
Zr951       O953   2.419   1_556  S
Zr951       O959   2.361       .  S
Zr951       O961   2.358       .  S
O953        H973   0.989   1_554  S
Zr954       O955   2.430       .  S
Zr954       O959   2.343       .  S
Zr954       O964   2.364       .  S
Zr957       O960   2.380       .  S
Zr957       O962   2.377       .  S
Zr957       O963   2.367       .  S
Zr958       O959   2.371       .  S
Zr958       O961   2.377       .  S
Zr958       O964   2.366       .  S
O959        H967   0.964       .  S
O962        H966   0.965       .  S
O963        H968   0.966       .  S
O981       Zr993   2.465       .  S
O981        C983   1.292       .  A
O982      Zr1019   2.459       .  S
O982        C983   1.292       .  A
C983       C1205   1.493       .  S
O984        C986   1.285       .  A
O985      Zr1020   2.497       .  S
O985        C986   1.301       .  A
C986       C1197   1.497       .  S
O987       Zr996   2.470       .  S
O987        C989   1.294       .  A
O988      Zr1019   2.422       .  S
O988        C989   1.285       .  A
C989       C1194   1.493       .  S
O990        C992   1.292       .  A
O991      Zr1020   2.481       .  S
O991        C992   1.297       .  A
C992       C1202   1.497       .  S
Zr993       O994   2.427       .  S
Zr993       O999   2.388       .  S
Zr993      O1025   2.364       .  S
O994       H1037   0.990       .  S
Zr996       O997   2.424       .  S
Zr996       O999   2.368       .  S
Zr996      O1024   2.349       .  S
O997       H1041   0.990       .  S
O999      Zr1019   2.391       .  S
O1000     Zr1020   2.426       .  S
O1000      H1027   0.966       .  S
O1001     Zr1013   2.420   1_556  S
O1001      C1003   1.284       .  A
O1002      C1003   1.303       .  A
C1003      C1189   1.504       .  S
O1004      C1006   1.285       .  A
O1005      C1006   1.292       .  A
C1006      C1181   1.476       .  S
O1007     Zr1016   2.410       .  S
O1007      C1009   1.280       .  A
O1008      C1009   1.304       .  A
C1009      C1178   1.494       .  S
O1010      C1012   1.288       .  A
O1011      C1012   1.287       .  A
C1012      C1185   1.471       .  S
Zr1013     O1021   2.389   1_554  S
Zr1016     O1017   2.430       .  S
Zr1016     O1021   2.380       .  S
Zr1019     O1024   2.379       .  S
Zr1019     O1025   2.393       .  S
Zr1020     O1023   2.402       .  S
Zr1020     O1026   2.395   1_565  S
O1021      H1029   0.964       .  S
O1024      H1028   0.965   1_565  S
O1025      H1030   0.964       .  S
O1043     Zr1055   2.456       .  S
O1043      C1045   1.290       .  A
O1044     Zr2305   2.461       .  S
O1044      C1045   1.290       .  A
C1045      C1173   1.488       .  S
O1046      C1048   1.289       .  A
O1047     Zr2306   2.475       .  S
O1047      C1048   1.295       .  A
C1048      C1165   1.496       .  S
O1049     Zr1058   2.452       .  S
O1049      C1051   1.290       .  A
O1050     Zr2305   2.456       .  S
O1050      C1051   1.292       .  A
C1051      C1162   1.492       .  S
O1052      C1054   1.299       .  A
O1053     Zr2306   2.439       .  S
O1053      C1054   1.291       .  A
C1054      C1169   1.500       .  S
Zr1055     O1056   2.428       .  S
Zr1055     O1061   2.370       .  S
Zr1055     O2003   2.368       .  S
Zr1055     O2311   2.370       .  S
O1056      H1099   0.990       .  S
Zr1058     O1059   2.420       .  S
Zr1058     O1061   2.378       .  S
Zr1058     O2310   2.351       .  S
Zr1058     O2006   2.358       .  S
O1059      H1103   0.990       .  S
O1061     Zr2305   2.395       .  S
O1062     Zr2306   2.408       .  S
O1062      H1089   0.967       .  S
O1063     Zr1075   2.435       .  S
O1063      C1065   1.287       .  A
O1064     Zr1082   2.461   1_455  S
O1064      C1065   1.293       .  A
C1065      C1150   1.497       .  S
O1066      C1068   1.288       .  A
O1067     Zr1081   2.474       .  S
O1067      C1068   1.296       .  A
C1068      C1157   1.487       .  S
O1069     Zr1078   2.444       .  S
O1069      C1071   1.288       .  A
O1070     Zr1082   2.467   1_455  S
O1070      C1071   1.294       .  A
C1071      C1154   1.502       .  S
O1072      C1074   1.288       .  A
O1073     Zr1081   2.478       .  S
O1073      C1074   1.297       .  A
C1074      C1145   1.495       .  S
Zr1075     O1076   2.429       .  S
Zr1075     O1077   2.433       .  S
Zr1075     O1083   2.377       .  S
Zr1075     O1085   2.359   1_455  S
O1076      H1096   0.990       .  S
O1076      H1101   0.990       .  S
O1077      H1097   0.990       .  S
Zr1078     O1079   2.423       .  S
Zr1078     O1083   2.371       .  S
Zr1078     O1088   2.361       .  S
Zr1081     O2268   2.463   1_455  S
Zr1081     O2274   2.451   1_455  S
Zr1081     O2285   2.401   1_455  S
Zr1081     O1084   2.406       .  S
Zr1081     O1086   2.399       .  S
Zr1081     O1087   2.392       .  S
Zr1082     O2271   2.449       .  S
Zr1082     O2277   2.459       .  S
Zr1082     O2286   2.415       .  S
Zr1082     O1083   2.395   1_655  S
Zr1082     O1085   2.385       .  S
Zr1082     O1088   2.387   1_655  S
O1083      H1091   0.967       .  S
O1085     Zr1973   2.375   1_556  S
O1086     Zr2282   2.355   1_455  S
O1086      H1090   0.965       .  S
O1087     Zr2279   2.363   1_455  S
O1087      H1092   0.965       .  S
O1088     Zr1976   2.368   1_456  S
C1105      H1106   1.109       .  S
C1105      C1111   1.545       .  S
C1105      C1110   1.549       .  S
C1105      C1109   1.525       .  S
C1107      H1108   1.108       .  S
C1107      C1113   1.559       .  S
C1107      C1112   1.514       .  S
C1107      C1114   1.553       .  S
C1109      C1112   1.354       .  D
C1109      C1223   1.434       .  S
C1110      C1113   1.386       .  D
C1110      C1158   1.509       .  S
C1111      C1114   1.385       .  D
C1111      C1186   1.485       .  S
C1112      C1222   1.406       .  S
C1113      C1153   1.515       .  S
C1114      C1190   1.531       .  S
C1115      H1116   1.112       .  S
C1115      C1121   1.537       .  S
C1115      C1120   1.541       .  S
C1115      C1119   1.523       .  S
C1117      H1118   1.108       .  S
C1117      C1123   1.562       .  S
C1117      C1122   1.518       .  S
C1117      C1124   1.564       .  S
C1119      C1122   1.355       .  D
C1119      C1220   1.417       .  S
C1120      C1123   1.374       .  D
C1120      C1182   1.498       .  S
C1121      C1124   1.384       .  D
C1121      C1161   1.496       .  S
C1122      C1217   1.417       .  S
C1123      C1177   1.516       .  S
C1124      C1166   1.519       .  S
C1125      H1126   1.110       .  S
C1125      C1131   1.554       .  S
C1125      C1130   1.546       .  S
C1125      C1129   1.517       .  S
C1127      H1128   1.111       .  S
C1127      C1133   1.551       .  S
C1127      C1132   1.520       .  S
C1127      C1134   1.557       .  S
C1129      C1132   1.351       .  D
C1129      C1212   1.408       .  S
C1130      C1133   1.383       .  D
C1130      C1206   1.503       .  S
C1131      C1134   1.390       .  D
C1131      C1146   1.514       .  S
C1132      C1210   1.424       .  S
C1133      C1201   1.516       .  S
C1134      C1149   1.511       .  S
C1135      H1136   1.111       .  S
C1135      C1141   1.553       .  S
C1135      C1140   1.560       .  S
C1135      C1139   1.530       .  S
C1137      H1138   1.112       .  S
C1137      C1143   1.543       .  S
C1137      C1142   1.513       .  S
C1137      C1144   1.544       .  S
C1139      C1142   1.354       .  D
C1139      C1213   1.428       .  S
C1140      C1143   1.392       .  D
C1140      C1198   1.511       .  S
C1141      C1144   1.386       .  D
C1141      C1170   1.509       .  S
C1142      C1216   1.413       .  S
C1143      C1193   1.512       .  S
C1144      C1174   1.516       .  S
C1145      C1146   1.348       .  D
C1145      H1147   1.086       .  S
C1146      H1148   1.083       .  S
C1149      C1150   1.357       .  D
C1149      H1151   1.086       .  S
C1150      H1152   1.082       .  S
C1153      C1154   1.359       .  D
C1153      H1155   1.086       .  S
C1154      H1156   1.082       .  S
C1157      C1158   1.346       .  D
C1157      H1159   1.085       .  S
C1158      H1160   1.081       .  S
C1161      C1162   1.354       .  D
C1161      H1163   1.086       .  S
C1162      H1164   1.086       .  S
C1165      C1166   1.358       .  D
C1165      H1167   1.083       .  S
C1166      H1168   1.086       .  S
C1169      C1170   1.354       .  D
C1169      H1171   1.084       .  S
C1170      H1172   1.086       .  S
C1173      C1174   1.361       .  D
C1173      H1175   1.083       .  S
C1174      H1176   1.085       .  S
C1177      C1178   1.337       .  D
C1177      H1179   1.086       .  S
C1178      H1180   1.087       .  S
C1181      C1182   1.346       .  D
C1181      H1183   1.085       .  S
C1182      H1184   1.087       .  S
C1185      C1186   1.347       .  D
C1185      H1187   1.087       .  S
C1186      H1188   1.086       .  S
C1189      C1190   1.349       .  D
C1189      H1191   1.085       .  S
C1190      H1192   1.083       .  S
C1193      C1194   1.346       .  D
C1193      H1195   1.086       .  S
C1194      H1196   1.080       .  S
C1197      C1198   1.345       .  D
C1197      H1199   1.088       .  S
C1198      H1200   1.083       .  S
C1201      C1202   1.360       .  D
C1201      H1203   1.086       .  S
C1202      H1204   1.085       .  S
C1205      C1206   1.355       .  D
C1205      H1207   1.083       .  S
C1206      H1208   1.087       .  S
C1209      C1210   1.192       .  T
C1211      C1212   1.182       .  T
C1213      C1214   1.194       .  T
C1215      C1216   1.186       .  T
C1217      C1218   1.188       .  T
C1219      C1220   1.187       .  T
C1221      C1222   1.181       .  T
C1223      C1224   1.198       .  T
O1225     Zr1237   2.411       .  S
O1225      C1227   1.279       .  A
O1226     Zr1263   2.421       .  S
O1226      C1227   1.283       .  A
C1227      C1530   1.418       .  S
O1228     Zr1546   2.403       .  S
O1228      C1230   1.277       .  A
O1229     Zr1264   2.391       .  S
O1229      C1230   1.278       .  A
C1230      C1524   1.400       .  S
O1231     Zr1240   2.408   1_554  S
O1231      C1233   1.279       .  A
O1232     Zr1263   2.394       .  S
O1232      C1233   1.279       .  A
C1233      C1525   1.405       .  S
O1234     Zr1543   2.391       .  S
O1234      C1236   1.277       .  A
O1235     Zr1264   2.370       .  S
O1235      C1236   1.274       .  A
C1236      C1527   1.385       .  S
Zr1237     O1540   2.396   1_554  S
Zr1237     O1238   2.428       .  S
Zr1237     O1545   2.436       .  S
Zr1237     O1243   2.350       .  S
Zr1237     O1550   2.362   1_554  S
Zr1237     O1573   2.375   1_554  S
Zr1237     O1269   2.359       .  S
O1238      H1281   0.990       .  S
O1239     Zr1543   2.438       .  S
O1239      H1586   0.990       .  S
O1239      H1590   0.990       .  S
Zr1240     O1534   2.409       .  S
Zr1240     O1241   2.437       .  S
Zr1240     O1548   2.425       .  S
Zr1240     O1550   2.361       .  S
Zr1240     O1243   2.367   1_556  S
Zr1240     O1268   2.351   1_556  S
Zr1240     O1576   2.353       .  S
O1241      H1588   0.989   1_556  S
O1241      H1285   0.990   1_556  S
O1242     Zr1546   2.425       .  S
O1242      H1581   0.990       .  S
O1243     Zr1263   2.364       .  S
O1244     Zr1543   2.363       .  S
O1244     Zr1546   2.365       .  S
O1244     Zr1264   2.378       .  S
O1244      H1271   0.965       .  S
O1245     Zr1257   2.413       .  S
O1245      C1247   1.280       .  A
O1246     Zr1264   2.398       .  S
O1246      C1247   1.279       .  A
C1247      C1515   1.407       .  S
O1248     Zr1566   2.409   1_554  S
O1248      C1250   1.280       .  A
O1249     Zr1263   2.390       .  S
O1249      C1250   1.278       .  A
C1250      C1521   1.400       .  S
O1251     Zr1260   2.412       .  S
O1251      C1253   1.280       .  A
O1252     Zr1264   2.391       .  S
O1252      C1253   1.277       .  A
C1253      C1520   1.405       .  S
O1254     Zr1563   2.406   1_554  S
O1254      C1256   1.279       .  A
O1255     Zr1263   2.383       .  S
O1255      C1256   1.277       .  A
C1256      C1517   1.398       .  S
Zr1257     O1560   2.395       .  S
Zr1257     O1564   2.437       .  S
Zr1257     O1259   2.426       .  S
Zr1257     O1265   2.360       .  S
Zr1257     O1572   2.368       .  S
Zr1257     O1575   2.360       .  S
Zr1257     O1267   2.353       .  S
O1258     Zr1563   2.439       .  S
O1258      H1584   0.990       .  S
O1258      H1589   0.989       .  S
O1259      H1279   0.990       .  S
Zr1260     O1554   2.412       .  S
Zr1260     O1261   2.433       .  S
Zr1260     O1568   2.438       .  S
Zr1260     O1572   2.357       .  S
Zr1260     O1265   2.352       .  S
Zr1260     O1270   2.361       .  S
Zr1260     O1574   2.378       .  S
O1261      H1583   0.990       .  S
O1262     Zr1566   2.437       .  S
O1262      H1582   0.990       .  S
O1262      H1592   0.990       .  S
Zr1263     O1266   2.377       .  S
Zr1263     O1268   2.379       .  S
Zr1263     O1269   2.367       .  S
Zr1264     O1265   2.370       .  S
Zr1264     O1267   2.371       .  S
Zr1264     O1270   2.364       .  S
O1265      H1273   0.965       .  S
O1266     Zr1563   2.368   1_554  S
O1266     Zr1566   2.360   1_554  S
O1267     Zr1543   2.371       .  S
O1268     Zr1566   2.372   1_554  S
O1268      H1272   0.965       .  S
O1269     Zr1563   2.353   1_554  S
O1269      H1274   0.965       .  S
O1270     Zr1546   2.351       .  S
H1275      O1548   0.989   1_554  S
H1276      O1568   0.990       .  S
H1277      O1567   0.990       .  S
H1278      O1564   0.990       .  S
H1280      O1545   0.990       .  S
H1282      O1547   0.990       .  S
H1283      O1564   0.990       .  S
H1284      O1545   0.990       .  S
H1286      O1568   0.990       .  S
O1287     Zr1299   2.473       .  S
O1287      C1289   1.293       .  A
O1288     Zr1325   2.454       .  S
O1288      C1289   1.291       .  A
C1289      C1511   1.498       .  S
O1290     Zr1608   2.431       .  S
O1290      C1292   1.286       .  A
O1291     Zr1326   2.498       .  S
O1291      C1292   1.301       .  A
C1292      C1503   1.502       .  S
O1293     Zr1302   2.455       .  S
O1293      C1295   1.291       .  A
O1294     Zr1325   2.441       .  S
O1294      C1295   1.288       .  A
C1295      C1500   1.495       .  S
O1296     Zr1605   2.463       .  S
O1296      C1298   1.292       .  A
O1297     Zr1326   2.455       .  S
O1297      C1298   1.292       .  A
C1298      C1508   1.491       .  S
Zr1299     O1602   2.459   1_554  S
Zr1299     O1300   2.429       .  S
Zr1299     O1607   2.437       .  S
Zr1299     O1305   2.378       .  S
Zr1299     O1612   2.390   1_554  S
Zr1299     O1635   2.368   1_554  S
Zr1299     O1331   2.370       .  S
O1300      H1343   0.990       .  S
O1301     Zr1605   2.437       .  S
O1301      H1648   0.990       .  S
O1301      H1652   0.991       .  S
Zr1302     O1596   2.429   1_554  S
Zr1302     O1303   2.426       .  S
Zr1302     O1610   2.434       .  S
Zr1302     O1612   2.386   1_554  S
Zr1302     O1305   2.370       .  S
Zr1302     O1330   2.355       .  S
Zr1302     O1638   2.373   1_554  S
O1303      H1650   0.990       .  S
O1303      H1347   0.990       .  S
O1304     Zr1608   2.434       .  S
O1304      H1643   0.990       .  S
O1305     Zr1325   2.392       .  S
O1306     Zr1605   2.383       .  S
O1306     Zr1608   2.389       .  S
O1306     Zr1326   2.422       .  S
O1306      H1333   0.965       .  S
O1307     Zr1319   2.454       .  S
O1307      C1309   1.291       .  A
O1308     Zr1938   2.466   1_545  S
O1308      C1309   1.294       .  A
C1309      C1495   1.503       .  S
O1310     Zr1628   2.477   1_554  S
O1310      C1312   1.295       .  A
O1311     Zr1937   2.441       .  S
O1311      C1312   1.288       .  A
C1312      C1487   1.486       .  S
O1313     Zr1322   2.470       .  S
O1313      C1315   1.293       .  A
O1314     Zr1938   2.453   1_545  S
O1314      C1315   1.291       .  A
C1315      C1484   1.498       .  S
O1316     Zr1625   2.423   1_554  S
O1316      C1318   1.283       .  A
O1317     Zr1937   2.491       .  S
O1317      C1318   1.299       .  A
C1318      C1491   1.493       .  S
Zr1319     O1622   2.473       .  S
Zr1319     O1626   2.432       .  S
Zr1319     O1627   2.436       .  S
Zr1319     O1327   2.381       .  S
Zr1319     O1634   2.386       .  S
Zr1319     O2249   2.365   1_545  S
Zr1319     O1941   2.378   1_545  S
O1320     Zr1625   2.428       .  S
O1320      H1646   0.990       .  S
O1320      H1651   0.990       .  S
O1321     Zr1625   2.433       .  S
O1321      H1647   0.990   1_556  S
Zr1322     O1616   2.447       .  S
Zr1322     O1323   2.428       .  S
Zr1322     O1630   2.437       .  S
Zr1322     O1634   2.388       .  S
Zr1322     O1327   2.374       .  S
Zr1322     O1944   2.367   1_545  S
Zr1322     O2248   2.376       .  S
O1323      H1645   0.990       .  S
O1324     Zr1628   2.439       .  S
O1324      H1644   0.990       .  S
O1324      H1654   0.990       .  S
Zr1325     O1923   2.448       .  S
Zr1325     O1929   2.443       .  S
Zr1325     O1940   2.405       .  S
Zr1325     O1330   2.391       .  S
Zr1325     O1331   2.396       .  S
Zr1326     O1920   2.514       .  S
Zr1326     O1926   2.449       .  S
Zr1326     O1939   2.402       .  S
Zr1326     O1329   2.386       .  S
Zr1326     O1332   2.401       .  S
O1327     Zr1938   2.401   1_545  S
O1327      H1335   0.965       .  S
O1328     Zr1625   2.381   1_554  S
O1328     Zr1628   2.387   1_554  S
O1328     Zr1937   2.406       .  S
O1329     Zr1605   2.364       .  S
O1329     Zr1931   2.363       .  S
O1330     Zr2240   2.361   1_554  S
O1330      H1334   0.964       .  S
O1331     Zr2237   2.370   1_554  S
O1331      H1336   0.965       .  S
O1332     Zr1608   2.372       .  S
O1332     Zr1934   2.366       .  S
H1337      O1610   0.990       .  S
H1338      O1630   0.990       .  S
H1339      O1629   0.990       .  S
H1340      O1626   0.990       .  S
H1341      O1627   0.990       .  S
H1342      O1607   0.990       .  S
H1344      O1609   0.990       .  S
H1345      O1626   0.990       .  S
H1346      O1607   0.990       .  S
H1348      O1630   0.990       .  S
O1349     Zr1361   2.463       .  S
O1349      C1351   1.291       .  A
O1350      C1351   1.295       .  A
C1351      C1479   1.502       .  S
O1352     Zr1670   2.449       .  S
O1352      C1354   1.289       .  A
O1353      C1354   1.297       .  A
C1354      C1471   1.501       .  S
O1355     Zr1364   2.449       .  S
O1355      C1357   1.291       .  A
O1356      C1357   1.287       .  A
C1357      C1468   1.488       .  S
O1358     Zr1667   2.450       .  S
O1358      C1360   1.290       .  A
O1359      C1360   1.293       .  A
C1360      C1475   1.486       .  S
Zr1361     O1664   2.445   1_554  S
Zr1361     O1362   2.426       .  S
Zr1361     O1669   2.437       .  S
Zr1361     O1367   2.380       .  S
Zr1361     O1674   2.388   1_554  S
O1362      H1405   0.990       .  S
O1363     Zr1667   2.437       .  S
O1363      H1710   0.990       .  S
O1363      H1714   0.990       .  S
Zr1364     O1658   2.452   1_554  S
Zr1364     O1365   2.427       .  S
Zr1364     O1672   2.435       .  S
Zr1364     O1674   2.382   1_554  S
Zr1364     O1367   2.383       .  S
O1365      H1712   0.990       .  S
O1365      H1409   0.990       .  S
O1366     Zr1670   2.436       .  S
O1366      H1705   0.990       .  S
O1368     Zr1667   2.394       .  S
O1368     Zr1670   2.382       .  S
O1368      H1395   0.967       .  S
O1369     Zr1381   2.455       .  S
O1369      C1371   1.290       .  A
O1370     Zr1388   2.455       .  S
O1370      C1371   1.292       .  A
C1371      C1456   1.494       .  S
O1372     Zr1690   2.458   1_554  S
O1372      C1374   1.291       .  A
O1373     Zr1387   2.485       .  S
O1373      C1374   1.297       .  A
C1374      C1463   1.499       .  S
O1375     Zr1384   2.486       .  S
O1375      C1377   1.295       .  A
O1376     Zr1388   2.426       .  S
O1376      C1377   1.285       .  A
C1377      C1460   1.493       .  S
O1378     Zr1687   2.456   1_554  S
O1378      C1380   1.291       .  A
O1379     Zr1387   2.459       .  S
O1379      C1380   1.291       .  A
C1380      C1451   1.488       .  S
Zr1381     O1684   2.441       .  S
Zr1381     O1382   2.431       .  S
Zr1381     O1383   2.434       .  S
Zr1381     O1389   2.379       .  S
Zr1381     O1696   2.394       .  S
Zr1381     O1699   2.371       .  S
Zr1381     O1391   2.366       .  S
O1382      H1402   0.990       .  S
O1382      H1407   0.990       .  S
O1383      H1403   0.990       .  S
Zr1384     O1678   2.431       .  S
Zr1384     O1385   2.428       .  S
Zr1384     O1692   2.438       .  S
Zr1384     O1696   2.398       .  S
Zr1384     O1389   2.362       .  S
Zr1384     O1394   2.357       .  S
Zr1384     O1698   2.379       .  S
O1385      H1707   0.990       .  S
O1386     Zr1690   2.438       .  S
O1386      H1706   0.990       .  S
O1386      H1716   0.990       .  S
Zr1387     O1390   2.404       .  S
Zr1387     O1392   2.395       .  S
Zr1387     O1393   2.399       .  S
Zr1388     O1389   2.398       .  S
Zr1388     O1391   2.389       .  S
Zr1388     O1394   2.387       .  S
O1389      H1397   0.966       .  S
O1390     Zr1687   2.382   1_554  S
O1390     Zr1690   2.392   1_554  S
O1392     Zr1690   2.365   1_554  S
O1392      H1396   0.965       .  S
O1393     Zr1687   2.359   1_554  S
O1393      H1398   0.965       .  S
H1399      O1672   0.990   1_556  S
H1400      O1692   0.990       .  S
H1401      O1691   0.990       .  S
H1404      O1669   0.990       .  S
H1406      O1671   0.990       .  S
H1408      O1669   0.990       .  S
H1410      O1692   0.990       .  S
C1411      H1412   1.109       .  S
C1411      C1417   1.574       .  S
C1411      C1416   1.565       .  S
C1411      C1415   1.515       .  S
C1413      H1414   1.113       .  S
C1413      C1419   1.533       .  S
C1413      C1418   1.521       .  S
C1413      C1420   1.539       .  S
C1415      C1418   1.354       .  D
C1415      C1529   1.432       .  S
C1416      C1419   1.384       .  D
C1416      C1464   1.521       .  S
C1417      C1420   1.389       .  D
C1417      C1492   1.509       .  S
C1418      C1528   1.398       .  S
C1419      C1459   1.502       .  S
C1420      C1496   1.519       .  S
C1421      H1422   1.110       .  S
C1421      C1427   1.549       .  S
C1421      C1426   1.540       .  S
C1421      C1425   1.515       .  S
C1423      H1424   1.111       .  S
C1423      C1429   1.556       .  S
C1423      C1428   1.521       .  S
C1423      C1430   1.552       .  S
C1425      C1428   1.351       .  D
C1425      C1526   1.419       .  S
C1426      C1429   1.387       .  D
C1426      C1488   1.513       .  S
C1427      C1430   1.391       .  D
C1427      C1467   1.502       .  S
C1428      C1523   1.413       .  S
C1429      C1483   1.507       .  S
C1430      C1472   1.518       .  S
C1431      H1432   1.111       .  S
C1431      C1437   1.550       .  S
C1431      C1436   1.545       .  S
C1431      C1435   1.516       .  S
C1433      H1434   1.110       .  S
C1433      C1439   1.554       .  S
C1433      C1438   1.522       .  S
C1433      C1440   1.551       .  S
C1435      C1438   1.353       .  D
C1435      C1518   1.410       .  S
C1436      C1439   1.384       .  D
C1436      C1512   1.506       .  S
C1437      C1440   1.387       .  D
C1437      C1452   1.517       .  S
C1438      C1516   1.421       .  S
C1439      C1507   1.513       .  S
C1440      C1455   1.502       .  S
C1441      H1442   1.107       .  S
C1441      C1447   1.562       .  S
C1441      C1446   1.566       .  S
C1441      C1445   1.516       .  S
C1443      H1444   1.113       .  S
C1443      C1449   1.545       .  S
C1443      C1448   1.520       .  S
C1443      C1450   1.534       .  S
C1445      C1448   1.354       .  D
C1445      C1519   1.418       .  S
C1446      C1449   1.393       .  D
C1446      C1504   1.520       .  S
C1447      C1450   1.381       .  D
C1447      C1476   1.510       .  S
C1448      C1522   1.414       .  S
C1449      C1499   1.510       .  S
C1450      C1480   1.509       .  S
C1451      C1452   1.361       .  D
C1451      H1453   1.081       .  S
C1452      H1454   1.086       .  S
C1455      C1456   1.354       .  D
C1455      H1457   1.086       .  S
C1456      H1458   1.084       .  S
C1459      C1460   1.350       .  D
C1459      H1461   1.086       .  S
C1460      H1462   1.085       .  S
C1463      C1464   1.361       .  D
C1463      H1465   1.084       .  S
C1464      H1466   1.086       .  S
C1467      C1468   1.348       .  D
C1467      H1469   1.086       .  S
C1468      H1470   1.081       .  S
C1471      C1472   1.350       .  D
C1471      H1473   1.086       .  S
C1472      H1474   1.083       .  S
C1475      C1476   1.355       .  D
C1475      H1477   1.082       .  S
C1476      H1478   1.086       .  S
C1479      C1480   1.358       .  D
C1479      H1481   1.085       .  S
C1480      H1482   1.086       .  S
C1483      C1484   1.354       .  D
C1483      H1485   1.086       .  S
C1484      H1486   1.083       .  S
C1487      C1488   1.364       .  D
C1487      H1489   1.083       .  S
C1488      H1490   1.086       .  S
C1491      C1492   1.342       .  D
C1491      H1493   1.087       .  S
C1492      H1494   1.084       .  S
C1495      C1496   1.357       .  D
C1495      H1497   1.082       .  S
C1496      H1498   1.086       .  S
C1499      C1500   1.351       .  D
C1499      H1501   1.085       .  S
C1500      H1502   1.080       .  S
C1503      C1504   1.348       .  D
C1503      H1505   1.087       .  S
C1504      H1506   1.081       .  S
C1507      C1508   1.359       .  D
C1507      H1509   1.086       .  S
C1508      H1510   1.083       .  S
C1511      C1512   1.355       .  D
C1511      H1513   1.085       .  S
C1512      H1514   1.086       .  S
C1515      C1516   1.190       .  T
C1517      C1518   1.184       .  T
C1519      C1520   1.188       .  T
C1521      C1522   1.186       .  T
C1523      C1524   1.185       .  T
C1525      C1526   1.188       .  T
C1527      C1528   1.176       .  T
C1529      C1530   1.196       .  T
O1531     Zr1543   2.418       .  S
O1531      C1533   1.281       .  A
O1532     Zr1569   2.402       .  S
O1532      C1533   1.279       .  A
C1533      C1836   1.411       .  S
O1534      C1536   1.280       .  A
O1535     Zr1570   2.385       .  S
O1535      C1536   1.277       .  A
C1536      C1830   1.400       .  S
O1537     Zr1546   2.406       .  S
O1537      C1539   1.279       .  A
O1538     Zr1569   2.407       .  S
O1538      C1539   1.281       .  A
C1539      C1831   1.410       .  S
O1540      C1542   1.278       .  A
O1541     Zr1570   2.398       .  S
O1541      C1542   1.280       .  A
C1542      C1833   1.398       .  S
Zr1543     O1544   2.425       .  S
Zr1543     O1549   2.347       .  S
Zr1543     O1575   2.360       .  S
O1544      H1587   0.990       .  S
Zr1546     O1547   2.436       .  S
Zr1546     O1549   2.365       .  S
Zr1546     O1574   2.350       .  S
O1547      H1591   0.990       .  S
O1549     Zr1569   2.362       .  S
O1550     Zr1570   2.380       .  S
O1550      H1577   0.966       .  S
O1551     Zr1563   2.412       .  S
O1551      C1553   1.280       .  A
O1552     Zr1570   2.401       .  S
O1552      C1553   1.280       .  A
C1553      C1821   1.406       .  S
O1554      C1556   1.281       .  A
O1555     Zr1569   2.378       .  S
O1555      C1556   1.276       .  A
C1556      C1827   1.395       .  S
O1557     Zr1566   2.419       .  S
O1557      C1559   1.281       .  A
O1558     Zr1570   2.415       .  S
O1558      C1559   1.282       .  A
C1559      C1826   1.418       .  S
O1560      C1562   1.277       .  A
O1561     Zr1569   2.384       .  S
O1561      C1562   1.277       .  A
C1562      C1823   1.394       .  S
Zr1563     O1565   2.429   1_556  S
Zr1563     O1571   2.368       .  S
Zr1563     O1573   2.360       .  S
O1565      H1585   0.990       .  S
Zr1566     O1567   2.430       .  S
Zr1566     O1571   2.352       .  S
Zr1566     O1576   2.363       .  S
Zr1569     O1572   2.378       .  S
Zr1569     O1574   2.377       .  S
Zr1569     O1575   2.373       .  S
Zr1570     O1571   2.373       .  S
Zr1570     O1573   2.374       .  S
Zr1570     O1576   2.370       .  S
O1571      H1579   0.965       .  S
O1574      H1578   0.965       .  S
O1575      H1580   0.965       .  S
O1593     Zr1605   2.463       .  S
O1593      C1595   1.291       .  A
O1594     Zr1631   2.467       .  S
O1594      C1595   1.295       .  A
C1595      C1817   1.499       .  S
O1596      C1598   1.285       .  A
O1597     Zr1632   2.491       .  S
O1597      C1598   1.299       .  A
C1598      C1809   1.498       .  S
O1599     Zr1608   2.462       .  S
O1599      C1601   1.293       .  A
O1600     Zr1631   2.450       .  S
O1600      C1601   1.290       .  A
C1601      C1806   1.499       .  S
O1602      C1604   1.291       .  A
O1603     Zr1632   2.447       .  S
O1603      C1604   1.290       .  A
C1604      C1814   1.484       .  S
Zr1605     O1606   2.431       .  S
Zr1605     O1611   2.380       .  S
Zr1605     O1637   2.369       .  S
O1606      H1649   0.990       .  S
Zr1608     O1609   2.424       .  S
Zr1608     O1611   2.368       .  S
Zr1608     O1636   2.352       .  S
O1609      H1653   0.990       .  S
O1611     Zr1631   2.398       .  S
O1612     Zr1632   2.415       .  S
O1612      H1639   0.966       .  S
O1613     Zr1625   2.425       .  S
O1613      C1615   1.283       .  A
O1614     Zr2244   2.509   1_545  S
O1614      C1615   1.301       .  A
C1615      C1801   1.504       .  S
O1616      C1618   1.289       .  A
O1617     Zr2243   2.480   1_545  S
O1617      C1618   1.296       .  A
C1618      C1793   1.493       .  S
O1619     Zr1628   2.467       .  S
O1619      C1621   1.293       .  A
O1620     Zr2244   2.447   1_545  S
O1620      C1621   1.291       .  A
C1621      C1790   1.492       .  S
O1622      C1624   1.294       .  A
O1623     Zr2243   2.417   1_545  S
O1623      C1624   1.285       .  A
C1624      C1797   1.477       .  S
Zr1625     O1633   2.370       .  S
Zr1625     O1943   2.366   1_546  S
Zr1625     O2247   2.362   1_545  S
Zr1628     O1629   2.433       .  S
Zr1628     O1633   2.384       .  S
Zr1628     O2250   2.373   1_545  S
Zr1628     O1942   2.369   1_556  S
Zr1631     O2229   2.465       .  S
Zr1631     O2235   2.466       .  S
Zr1631     O2246   2.407       .  S
Zr1631     O1636   2.395       .  S
Zr1631     O1637   2.396       .  S
Zr1632     O2226   2.476       .  S
Zr1632     O2232   2.446       .  S
Zr1632     O2245   2.403       .  S
Zr1632     O1635   2.387       .  S
Zr1632     O1638   2.393       .  S
O1633     Zr2244   2.402   1_545  S
O1633      H1641   0.968       .  S
O1634     Zr2243   2.403   1_545  S
O1635     Zr2237   2.358       .  S
O1636     Zr1934   2.366       .  S
O1636      H1640   0.965       .  S
O1637     Zr1931   2.372       .  S
O1637      H1642   0.964       .  S
O1638     Zr2240   2.368       .  S
O1655     Zr1667   2.484       .  S
O1655      C1657   1.295       .  A
O1656      C1657   1.289       .  A
C1657      C1785   1.496       .  S
O1658      C1660   1.290       .  A
O1659      C1660   1.292       .  A
C1660      C1777   1.488       .  S
O1661     Zr1670   2.458       .  S
O1661      C1663   1.291       .  A
O1662      C1663   1.293       .  A
C1663      C1774   1.497       .  S
O1664      C1666   1.289       .  A
O1665      C1666   1.294       .  A
C1666      C1781   1.488       .  S
Zr1667     O1668   2.432       .  S
Zr1667     O1673   2.372       .  S
O1668      H1711   0.990       .  S
Zr1670     O1671   2.423       .  S
Zr1670     O1673   2.378       .  S
O1671      H1715   0.990       .  S
O1674      H1701   0.966       .  S
O1675     Zr1687   2.441       .  S
O1675      C1677   1.289       .  A
O1676     Zr1694   2.457       .  S
O1676      C1677   1.293       .  A
C1677      C1762   1.496       .  S
O1678      C1680   1.286       .  A
O1679     Zr1693   2.495       .  S
O1679      C1680   1.300       .  A
C1680      C1769   1.492       .  S
O1681     Zr1690   2.469       .  S
O1681      C1683   1.292       .  A
O1682     Zr1694   2.441       .  S
O1682      C1683   1.289       .  A
C1683      C1766   1.497       .  S
O1684      C1686   1.287       .  A
O1685     Zr1693   2.476       .  S
O1685      C1686   1.297       .  A
C1686      C1757   1.493       .  S
Zr1687     O1688   2.425       .  S
Zr1687     O1689   2.436       .  S
Zr1687     O1695   2.391       .  S
Zr1687     O1697   2.360       .  S
O1688      H1708   0.990       .  S
O1688      H1713   0.990       .  S
O1689      H1709   0.990       .  S
Zr1690     O1691   2.431       .  S
Zr1690     O1695   2.374       .  S
Zr1690     O1700   2.370       .  S
Zr1693     O1696   2.418       .  S
Zr1693     O1698   2.407       .  S
Zr1693     O1699   2.401       .  S
Zr1694     O1695   2.401       .  S
Zr1694     O1697   2.387       .  S
Zr1694     O1700   2.378       .  S
O1695      H1703   0.966       .  S
O1698      H1702   0.964       .  S
O1699      H1704   0.964       .  S
C1717      H1718   1.109       .  S
C1717      C1723   1.546       .  S
C1717      C1722   1.546       .  S
C1717      C1721   1.519       .  S
C1719      H1720   1.111       .  S
C1719      C1725   1.559       .  S
C1719      C1724   1.517       .  S
C1719      C1726   1.553       .  S
C1721      C1724   1.352       .  D
C1721      C1835   1.425       .  S
C1722      C1725   1.389       .  D
C1722      C1770   1.516       .  S
C1723      C1726   1.394       .  D
C1723      C1798   1.503       .  S
C1724      C1834   1.410       .  S
C1725      C1765   1.512       .  S
C1726      C1802   1.523       .  S
C1727      H1728   1.111       .  S
C1727      C1733   1.556       .  S
C1727      C1732   1.554       .  S
C1727      C1731   1.521       .  S
C1729      H1730   1.111       .  S
C1729      C1735   1.545       .  S
C1729      C1734   1.519       .  S
C1729      C1736   1.547       .  S
C1731      C1734   1.353       .  D
C1731      C1832   1.424       .  S
C1732      C1735   1.382       .  D
C1732      C1794   1.514       .  S
C1733      C1736   1.387       .  D
C1733      C1773   1.504       .  S
C1734      C1829   1.413       .  S
C1735      C1789   1.501       .  S
C1736      C1778   1.515       .  S
C1737      H1738   1.111       .  S
C1737      C1743   1.555       .  S
C1737      C1742   1.548       .  S
C1737      C1741   1.517       .  S
C1739      H1740   1.109       .  S
C1739      C1745   1.549       .  S
C1739      C1744   1.518       .  S
C1739      C1746   1.550       .  S
C1741      C1744   1.351       .  D
C1741      C1824   1.407       .  S
C1742      C1745   1.383       .  D
C1742      C1818   1.508       .  S
C1743      C1746   1.390       .  D
C1743      C1758   1.507       .  S
C1744      C1822   1.421       .  S
C1745      C1813   1.511       .  S
C1746      C1761   1.513       .  S
C1747      H1748   1.107       .  S
C1747      C1753   1.561       .  S
C1747      C1752   1.570       .  S
C1747      C1751   1.519       .  S
C1749      H1750   1.113       .  S
C1749      C1755   1.539       .  S
C1749      C1754   1.521       .  S
C1749      C1756   1.532       .  S
C1751      C1754   1.357       .  D
C1751      C1825   1.431       .  S
C1752      C1755   1.391       .  D
C1752      C1810   1.514       .  S
C1753      C1756   1.382       .  D
C1753      C1782   1.513       .  S
C1754      C1828   1.408       .  S
C1755      C1805   1.514       .  S
C1756      C1786   1.503       .  S
C1757      C1758   1.345       .  D
C1757      H1759   1.087       .  S
C1758      H1760   1.082       .  S
C1761      C1762   1.356       .  D
C1761      H1763   1.085       .  S
C1762      H1764   1.078       .  S
C1765      C1766   1.352       .  D
C1765      H1767   1.086       .  S
C1766      H1768   1.083       .  S
C1769      C1770   1.347       .  D
C1769      H1771   1.086       .  S
C1770      H1772   1.082       .  S
C1773      C1774   1.356       .  D
C1773      H1775   1.086       .  S
C1774      H1776   1.084       .  S
C1777      C1778   1.360       .  D
C1777      H1779   1.082       .  S
C1778      H1780   1.086       .  S
C1781      C1782   1.357       .  D
C1781      H1783   1.082       .  S
C1782      H1784   1.086       .  S
C1785      C1786   1.352       .  D
C1785      H1787   1.085       .  S
C1786      H1788   1.087       .  S
C1789      C1790   1.353       .  D
C1789      H1791   1.086       .  S
C1790      H1792   1.084       .  S
C1793      C1794   1.357       .  D
C1793      H1795   1.084       .  S
C1794      H1796   1.086       .  S
C1797      C1798   1.338       .  D
C1797      H1799   1.081       .  S
C1798      H1800   1.087       .  S
C1801      C1802   1.351       .  D
C1801      H1803   1.087       .  S
C1802      H1804   1.085       .  S
C1805      C1806   1.352       .  D
C1805      H1807   1.086       .  S
C1806      H1808   1.082       .  S
C1809      C1810   1.346       .  D
C1809      H1811   1.087       .  S
C1810      H1812   1.082       .  S
C1813      C1814   1.358       .  D
C1813      H1815   1.086       .  S
C1814      H1816   1.083       .  S
C1817      C1818   1.358       .  D
C1817      H1819   1.083       .  S
C1818      H1820   1.086       .  S
C1821      C1822   1.190       .  T
C1823      C1824   1.182       .  T
C1825      C1826   1.196       .  T
C1827      C1828   1.183       .  T
C1829      C1830   1.185       .  T
C1831      C1832   1.192       .  T
C1833      C1834   1.184       .  T
C1835      C1836   1.192       .  T
O1837     Zr1849   2.431       .  S
O1837      C1839   1.282       .  A
O1838     Zr1875   2.406       .  S
O1838      C1839   1.280       .  A
C1839      C2142   1.420       .  S
O1840     Zr2158   2.406       .  S
O1840      C1842   1.279       .  A
O1841     Zr1876   2.389       .  S
O1841      C1842   1.277       .  A
C1842      C2136   1.400       .  S
O1843     Zr1852   2.418   1_554  S
O1843      C1845   1.282       .  A
O1844     Zr1875   2.378       .  S
O1844      C1845   1.276       .  A
C1845      C2137   1.401       .  S
O1846     Zr2155   2.402       .  S
O1846      C1848   1.279       .  A
O1847     Zr1876   2.394       .  S
O1847      C1848   1.279       .  A
C1848      C2139   1.399       .  S
Zr1849     O2152   2.407   1_554  S
Zr1849     O1850   2.426       .  S
Zr1849     O2157   2.436       .  S
Zr1849     O1855   2.349       .  S
Zr1849     O2162   2.364   1_554  S
Zr1849     O2185   2.372   1_554  S
Zr1849     O1881   2.362       .  S
O1850      H1893   0.990       .  S
O1851     Zr2155   2.436       .  S
O1851      H2198   0.989       .  S
O1851      H2202   0.990       .  S
Zr1852     O2146   2.413       .  S
Zr1852     O1853   2.437       .  S
Zr1852     O2160   2.429       .  S
Zr1852     O2162   2.371       .  S
Zr1852     O1855   2.370   1_556  S
Zr1852     O1880   2.354   1_556  S
Zr1852     O2188   2.356       .  S
O1853      H2200   0.989       .  S
O1853      H1897   0.990       .  S
O1854     Zr2158   2.427       .  S
O1854      H2193   0.990       .  S
O1855     Zr1875   2.370       .  S
O1856     Zr2155   2.355       .  S
O1856     Zr2158   2.353       .  S
O1856     Zr1876   2.373       .  S
O1856      H1883   0.965       .  S
O1857     Zr1869   2.408       .  S
O1857      C1859   1.279       .  A
O1858     Zr1876   2.398       .  S
O1858      C1859   1.280       .  A
C1859      C2127   1.404       .  S
O1860     Zr2178   2.398   1_554  S
O1860      C1862   1.278       .  A
O1861     Zr1875   2.380       .  S
O1861      C1862   1.276       .  A
C1862      C2133   1.390       .  S
O1863     Zr1872   2.410       .  S
O1863      C1865   1.279       .  A
O1864     Zr1876   2.408       .  S
O1864      C1865   1.281       .  A
C1865      C2132   1.412       .  S
O1866     Zr2175   2.401       .  S
O1866      C1868   1.278       .  A
O1867     Zr1875   2.390       .  S
O1867      C1868   1.277       .  A
C1868      C2129   1.399       .  S
Zr1869     O2172   2.409       .  S
Zr1869     O2176   2.435       .  S
Zr1869     O1871   2.421       .  S
Zr1869     O1877   2.362       .  S
Zr1869     O2184   2.363       .  S
Zr1869     O2187   2.350       .  S
Zr1869     O1879   2.364       .  S
O1870     Zr2175   2.435   1_556  S
O1870      H2196   0.990       .  S
O1870      H2201   0.989       .  S
O1871      H1891   0.989       .  S
Zr1872     O2166   2.406       .  S
Zr1872     O1873   2.427       .  S
Zr1872     O2180   2.435       .  S
Zr1872     O2184   2.363       .  S
Zr1872     O1877   2.351       .  S
Zr1872     O1882   2.359       .  S
Zr1872     O2186   2.368       .  S
O1873      H2195   0.990       .  S
O1874     Zr2178   2.437       .  S
O1874      H2194   0.990       .  S
O1874      H2204   0.990       .  S
Zr1875     O1878   2.371       .  S
Zr1875     O1880   2.383       .  S
Zr1875     O1881   2.366       .  S
Zr1876     O1877   2.371       .  S
Zr1876     O1879   2.377       .  S
Zr1876     O1882   2.369       .  S
O1877      H1885   0.965       .  S
O1878     Zr2175   2.364       .  S
O1878     Zr2178   2.365   1_554  S
O1879     Zr2155   2.378       .  S
O1880     Zr2178   2.372   1_554  S
O1880      H1884   0.965       .  S
O1881     Zr2175   2.358       .  S
O1881      H1886   0.965       .  S
O1882     Zr2158   2.349       .  S
H1887      O2160   0.990       .  S
H1888      O2180   0.990       .  S
H1889      O2179   0.990       .  S
H1890      O2176   0.990       .  S
H1892      O2157   0.990       .  S
H1894      O2159   0.988       .  S
H1895      O2176   0.990       .  S
H1896      O2157   0.990       .  S
H1898      O2180   0.990       .  S
O1899     Zr1911   2.471       .  S
O1899      C1901   1.293       .  A
O1900     Zr1937   2.444   1_565  S
O1900      C1901   1.289       .  A
C1901      C2123   1.493       .  S
O1902     Zr2220   2.430       .  S
O1902      C1904   1.286       .  A
O1903     Zr1938   2.481       .  S
O1903      C1904   1.298       .  A
C1904      C2115   1.493       .  S
O1905     Zr1914   2.475       .  S
O1905      C1907   1.295       .  A
O1906     Zr1937   2.448   1_565  S
O1906      C1907   1.291       .  A
C1907      C2112   1.503       .  S
O1908     Zr2217   2.462       .  S
O1908      C1910   1.291       .  A
O1909     Zr1938   2.460       .  S
O1909      C1910   1.292       .  A
C1910      C2120   1.495       .  S
Zr1911     O2214   2.450   1_554  S
Zr1911     O1912   2.430       .  S
Zr1911     O2219   2.437       .  S
Zr1911     O1917   2.374       .  S
Zr1911     O2224   2.381   1_554  S
Zr1911     O2247   2.373   1_554  S
Zr1911     O1943   2.361       .  S
O1912      H1955   0.990       .  S
O1913     Zr2217   2.437       .  S
O1913      H2260   0.990       .  S
O1913      H2264   0.991       .  S
Zr1914     O2208   2.454   1_554  S
Zr1914     O1915   2.432       .  S
Zr1914     O2222   2.434   1_554  S
Zr1914     O2224   2.391   1_554  S
Zr1914     O1917   2.381       .  S
Zr1914     O1942   2.360   1_565  S
Zr1914     O2250   2.373   1_554  S
O1915      H2262   0.990       .  S
O1915      H1959   0.990       .  S
O1916     Zr2220   2.435       .  S
O1916      H2255   0.990       .  S
O1917     Zr1937   2.400   1_565  S
O1918     Zr2217   2.383       .  S
O1918     Zr2220   2.401       .  S
O1918     Zr1938   2.415       .  S
O1918      H1945   0.968       .  S
O1919     Zr1931   2.414       .  S
O1919      C1921   1.276       .  A
O1920      C1921   1.299       .  A
C1921      C2107   1.500       .  S
O1922     Zr2240   2.470   1_554  S
O1922      C1924   1.293       .  A
O1923      C1924   1.289       .  A
C1924      C2099   1.487       .  S
O1925     Zr1934   2.470       .  S
O1925      C1927   1.294       .  A
O1926      C1927   1.292       .  A
C1927      C2096   1.494       .  S
O1928     Zr2237   2.427   1_554  S
O1928      C1930   1.284       .  A
O1929      C1930   1.290       .  A
C1930      C2103   1.465       .  S
Zr1931     O2234   2.415       .  S
Zr1931     O2238   2.436       .  S
Zr1931     O2239   2.437       .  S
Zr1931     O1939   2.369       .  S
Zr1931     O2246   2.375       .  S
O1932     Zr2237   2.435       .  S
O1932      H2258   0.990       .  S
O1932      H2263   0.991       .  S
O1933     Zr2237   2.434       .  S
O1933      H2259   0.990       .  S
Zr1934     O2228   2.465       .  S
Zr1934     O1935   2.433       .  S
Zr1934     O2242   2.436       .  S
Zr1934     O2246   2.391       .  S
Zr1934     O1939   2.379       .  S
O1935      H2257   0.990       .  S
O1936     Zr2240   2.436       .  S
O1936      H2256   0.990       .  S
O1936      H2266   0.990       .  S
Zr1937     O1942   2.402       .  S
Zr1937     O1943   2.391   1_545  S
Zr1938     O1941   2.394       .  S
Zr1938     O1944   2.394       .  S
O1939      H1947   0.965       .  S
O1940     Zr2237   2.386   1_554  S
O1940     Zr2240   2.380   1_554  S
O1941     Zr2217   2.374       .  S
O1942      H1946   0.965       .  S
O1943      H1948   0.965       .  S
O1944     Zr2220   2.376       .  S
H1949      O2222   0.990       .  S
H1950      O2242   0.990       .  S
H1951      O2241   0.990   1_554  S
H1952      O2238   0.990       .  S
H1953      O2239   0.991       .  S
H1954      O2219   0.990       .  S
H1956      O2221   0.990       .  S
H1957      O2238   0.988       .  S
H1958      O2219   0.990       .  S
H1960      O2242   0.990       .  S
O1961     Zr1973   2.475       .  S
O1961      C1963   1.293       .  A
O1962      C1963   1.293       .  A
C1963      C2091   1.501       .  S
O1964     Zr2282   2.449       .  S
O1964      C1966   1.289       .  A
O1965      C1966   1.296       .  A
C1966      C2083   1.501       .  S
O1967     Zr1976   2.451       .  S
O1967      C1969   1.291       .  A
O1968      C1969   1.290       .  A
C1969      C2080   1.493       .  S
O1970     Zr2279   2.457       .  S
O1970      C1972   1.291       .  A
O1971      C1972   1.293       .  A
C1972      C2087   1.490       .  S
Zr1973     O2276   2.447   1_554  S
Zr1973     O1974   2.431       .  S
Zr1973     O2281   2.437       .  S
Zr1973     O1979   2.372       .  S
Zr1973     O2286   2.386   1_554  S
O1974      H2017   0.990       .  S
O1975     Zr2279   2.438       .  S
O1975      H2322   0.990       .  S
O1975      H2326   0.990       .  S
Zr1976     O2270   2.451   1_554  S
Zr1976     O1977   2.431       .  S
Zr1976     O2284   2.435       .  S
Zr1976     O2286   2.380   1_554  S
Zr1976     O1979   2.377       .  S
O1977      H2324   0.990       .  S
O1977      H2021   0.990       .  S
O1978     Zr2282   2.437       .  S
O1978      H2317   0.990       .  S
O1980     Zr2279   2.394       .  S
O1980     Zr2282   2.390       .  S
O1980      H2007   0.966       .  S
O1981     Zr1993   2.456       .  S
O1981      C1983   1.291       .  A
O1982     Zr2000   2.464       .  S
O1982      C1983   1.294       .  A
C1983      C2068   1.498       .  S
O1984     Zr2302   2.435   1_554  S
O1984      C1986   1.285       .  A
O1985     Zr1999   2.483       .  S
O1985      C1986   1.296       .  A
C1986      C2075   1.492       .  S
O1987     Zr1996   2.479       .  S
O1987      C1989   1.295       .  A
O1988     Zr2000   2.439       .  S
O1988      C1989   1.289       .  A
C1989      C2072   1.498       .  S
O1990     Zr2299   2.459   1_554  S
O1990      C1992   1.292       .  A
O1991     Zr1999   2.454       .  S
O1991      C1992   1.291       .  A
C1992      C2063   1.485       .  S
Zr1993     O2296   2.456       .  S
Zr1993     O1994   2.430       .  S
Zr1993     O1995   2.435       .  S
Zr1993     O2001   2.384       .  S
Zr1993     O2308   2.382       .  S
Zr1993     O2311   2.371       .  S
Zr1993     O2003   2.365       .  S
O1994      H2014   0.990       .  S
O1994      H2019   0.990       .  S
O1995      H2015   0.990       .  S
Zr1996     O2290   2.466       .  S
Zr1996     O1997   2.425       .  S
Zr1996     O2304   2.437       .  S
Zr1996     O2308   2.394       .  S
Zr1996     O2001   2.386       .  S
Zr1996     O2006   2.356       .  S
Zr1996     O2310   2.369       .  S
O1997      H2319   0.990       .  S
O1998     Zr2302   2.442       .  S
O1998      H2318   0.990       .  S
O1998      H2328   0.990       .  S
Zr1999     O2002   2.405       .  S
Zr1999     O2004   2.391       .  S
Zr1999     O2005   2.405       .  S
Zr2000     O2001   2.403       .  S
Zr2000     O2003   2.383       .  S
Zr2000     O2006   2.384       .  S
O2001      H2009   0.966       .  S
O2002     Zr2299   2.393   1_554  S
O2002     Zr2302   2.372   1_554  S
O2004     Zr2302   2.368   1_554  S
O2004      H2008   0.962       .  S
O2005     Zr2299   2.365   1_554  S
O2005      H2010   0.965       .  S
H2011      O2284   0.990       .  S
H2012      O2304   0.990       .  S
H2013      O2303   0.990       .  S
H2016      O2281   0.990       .  S
H2018      O2283   0.990       .  S
H2020      O2281   0.990       .  S
H2022      O2304   0.990       .  S
C2023      H2024   1.108       .  S
C2023      C2029   1.548       .  S
C2023      C2028   1.550       .  S
C2023      C2027   1.522       .  S
C2025      H2026   1.111       .  S
C2025      C2031   1.557       .  S
C2025      C2030   1.522       .  S
C2025      C2032   1.551       .  S
C2027      C2030   1.356       .  D
C2027      C2141   1.432       .  S
C2028      C2031   1.388       .  D
C2028      C2076   1.513       .  S
C2029      C2032   1.381       .  D
C2029      C2104   1.496       .  S
C2030      C2140   1.410       .  S
C2031      C2071   1.514       .  S
C2032      C2108   1.520       .  S
C2033      H2034   1.110       .  S
C2033      C2039   1.552       .  S
C2033      C2038   1.538       .  S
C2033      C2037   1.513       .  S
C2035      H2036   1.111       .  S
C2035      C2041   1.554       .  S
C2035      C2040   1.520       .  S
C2035      C2042   1.553       .  S
C2037      C2040   1.352       .  D
C2037      C2138   1.413       .  S
C2038      C2041   1.384       .  D
C2038      C2100   1.514       .  S
C2039      C2042   1.392       .  D
C2039      C2079   1.507       .  S
C2040      C2135   1.413       .  S
C2041      C2095   1.502       .  S
C2042      C2084   1.517       .  S
C2043      H2044   1.111       .  S
C2043      C2049   1.548       .  S
C2043      C2048   1.544       .  S
C2043      C2047   1.518       .  S
C2045      H2046   1.111       .  S
C2045      C2051   1.554       .  S
C2045      C2050   1.520       .  S
C2045      C2052   1.553       .  S
C2047      C2050   1.352       .  D
C2047      C2130   1.413       .  S
C2048      C2051   1.384       .  D
C2048      C2124   1.501       .  S
C2049      C2052   1.387       .  D
C2049      C2064   1.515       .  S
C2050      C2128   1.419       .  S
C2051      C2119   1.515       .  S
C2052      C2067   1.503       .  S
C2053      H2054   1.108       .  S
C2053      C2059   1.559       .  S
C2053      C2058   1.567       .  S
C2053      C2057   1.516       .  S
C2055      H2056   1.113       .  S
C2055      C2061   1.542       .  S
C2055      C2060   1.519       .  S
C2055      C2062   1.537       .  S
C2057      C2060   1.353       .  D
C2057      C2131   1.426       .  S
C2058      C2061   1.393       .  D
C2058      C2116   1.508       .  S
C2059      C2062   1.383       .  D
C2059      C2088   1.514       .  S
C2060      C2134   1.403       .  S
C2061      C2111   1.521       .  S
C2062      C2092   1.506       .  S
C2063      C2064   1.361       .  D
C2063      H2065   1.081       .  S
C2064      H2066   1.086       .  S
C2067      C2068   1.356       .  D
C2067      H2069   1.086       .  S
C2068      H2070   1.085       .  S
C2071      C2072   1.352       .  D
C2071      H2073   1.086       .  S
C2072      H2074   1.083       .  S
C2075      C2076   1.347       .  D
C2075      H2077   1.087       .  S
C2076      H2078   1.084       .  S
C2079      C2080   1.351       .  D
C2079      H2081   1.085       .  S
C2080      H2082   1.080       .  S
C2083      C2084   1.350       .  D
C2083      H2085   1.086       .  S
C2084      H2086   1.082       .  S
C2087      C2088   1.359       .  D
C2087      H2089   1.083       .  S
C2088      H2090   1.086       .  S
C2091      C2092   1.356       .  D
C2091      H2093   1.085       .  S
C2092      H2094   1.086       .  S
C2095      C2096   1.354       .  D
C2095      H2097   1.086       .  S
C2096      H2098   1.084       .  S
C2099      C2100   1.363       .  D
C2099      H2101   1.083       .  S
C2100      H2102   1.086       .  S
C2103      C2104   1.348       .  D
C2103      H2105   1.082       .  S
C2104      H2106   1.087       .  S
C2107      C2108   1.343       .  D
C2107      H2109   1.087       .  S
C2108      H2110   1.086       .  S
C2111      C2112   1.353       .  D
C2111      H2113   1.086       .  S
C2112      H2114   1.079       .  S
C2115      C2116   1.345       .  D
C2115      H2117   1.087       .  S
C2116      H2118   1.082       .  S
C2119      C2120   1.360       .  D
C2119      H2121   1.086       .  S
C2120      H2122   1.084       .  S
C2123      C2124   1.352       .  D
C2123      H2125   1.084       .  S
C2124      H2126   1.087       .  S
C2127      C2128   1.189       .  T
C2129      C2130   1.185       .  T
C2131      C2132   1.193       .  T
C2133      C2134   1.180       .  T
C2135      C2136   1.185       .  T
C2137      C2138   1.185       .  T
C2139      C2140   1.184       .  T
C2141      C2142   1.197       .  T
O2143     Zr2155   2.415       .  S
O2143      C2145   1.280       .  A
O2144     Zr2181   2.424       .  S
O2144      C2145   1.284       .  A
C2145      C2448   1.419       .  S
O2146      C2148   1.279       .  A
O2147     Zr2182   2.394       .  S
O2147      C2148   1.278       .  A
C2148      C2442   1.405       .  S
O2149     Zr2158   2.395       .  S
O2149      C2151   1.277       .  A
O2150     Zr2181   2.407       .  S
O2150      C2151   1.282       .  A
C2151      C2443   1.402       .  S
O2152      C2154   1.280       .  A
O2153     Zr2182   2.381       .  S
O2153      C2154   1.277       .  A
C2154      C2445   1.397       .  S
Zr2155     O2156   2.432       .  S
Zr2155     O2161   2.349       .  S
Zr2155     O2187   2.362       .  S
O2156      H2199   0.990       .  S
Zr2158     O2159   2.433       .  S
Zr2158     O2161   2.371       .  S
Zr2158     O2186   2.359       .  S
O2159      H2203   0.990       .  S
O2161     Zr2181   2.369       .  S
O2162     Zr2182   2.388       .  S
O2162      H2189   0.965       .  S
O2163     Zr2175   2.412   1_556  S
O2163      C2165   1.280       .  A
O2164     Zr2182   2.394       .  S
O2164      C2165   1.279       .  A
C2165      C2433   1.404       .  S
O2166      C2168   1.280       .  A
O2167     Zr2181   2.394       .  S
O2167      C2168   1.280       .  A
C2168      C2439   1.401       .  S
O2169     Zr2178   2.413       .  S
O2169      C2171   1.279       .  A
O2170     Zr2182   2.417       .  S
O2170      C2171   1.282       .  A
C2171      C2438   1.419       .  S
O2172      C2174   1.280       .  A
O2173     Zr2181   2.404       .  S
O2173      C2174   1.281       .  A
C2174      C2435   1.410       .  S
Zr2175     O2177   2.430       .  S
Zr2175     O2183   2.366   1_554  S
Zr2175     O2185   2.353   1_554  S
O2177      H2197   0.990       .  S
Zr2178     O2179   2.429       .  S
Zr2178     O2183   2.349       .  S
Zr2178     O2188   2.362       .  S
Zr2181     O2184   2.375       .  S
Zr2181     O2186   2.386       .  S
Zr2181     O2187   2.372       .  S
Zr2182     O2183   2.370       .  S
Zr2182     O2185   2.375       .  S
Zr2182     O2188   2.369       .  S
O2183      H2191   0.965       .  S
O2186      H2190   0.966       .  S
O2187      H2192   0.965       .  S
O2205     Zr2217   2.473       .  S
O2205      C2207   1.293       .  A
O2206     Zr2243   2.442       .  S
O2206      C2207   1.288       .  A
C2207      C2429   1.489       .  S
O2208      C2210   1.290       .  A
O2209     Zr2244   2.488       .  S
O2209      C2210   1.299       .  A
C2210      C2421   1.497       .  S
O2211     Zr2220   2.483       .  S
O2211      C2213   1.295       .  A
O2212     Zr2243   2.423       .  S
O2212      C2213   1.284       .  A
C2213      C2418   1.488       .  S
O2214      C2216   1.290       .  A
O2215     Zr2244   2.465       .  S
O2215      C2216   1.294       .  A
C2216      C2426   1.491       .  S
Zr2217     O2218   2.427       .  S
Zr2217     O2223   2.377       .  S
Zr2217     O2249   2.359       .  S
O2218      H2261   0.990       .  S
Zr2220     O2221   2.430       .  S
Zr2220     O2223   2.367       .  S
Zr2220     O2248   2.350   1_565  S
O2221      H2265   0.990       .  S
O2223     Zr2243   2.388       .  S
O2224     Zr2244   2.416       .  S
O2224      H2251   0.966       .  S
O2225     Zr2237   2.441       .  S
O2225      C2227   1.287       .  A
O2226      C2227   1.296       .  A
C2227      C2413   1.503       .  S
O2228      C2230   1.293       .  A
O2229      C2230   1.294       .  A
C2230      C2405   1.491       .  S
O2231     Zr2240   2.466       .  S
O2231      C2233   1.293       .  A
O2232      C2233   1.290       .  A
C2233      C2402   1.495       .  S
O2234      C2236   1.281       .  A
O2235      C2236   1.294       .  A
C2236      C2409   1.474       .  S
Zr2237     O2245   2.378       .  S
Zr2240     O2241   2.425       .  S
Zr2240     O2245   2.381       .  S
Zr2243     O2248   2.383   1_565  S
Zr2243     O2249   2.400       .  S
Zr2244     O2247   2.387       .  S
Zr2244     O2250   2.403       .  S
O2245      H2253   0.964       .  S
O2248      H2252   0.965       .  S
O2249      H2254   0.964       .  S
O2267     Zr2279   2.473       .  S
O2267      C2269   1.293       .  A
O2268      C2269   1.293       .  A
C2269      C2397   1.501       .  S
O2270      C2272   1.290       .  A
O2271      C2272   1.290       .  A
C2272      C2389   1.480       .  S
O2273     Zr2282   2.460       .  S
O2273      C2275   1.291       .  A
O2274      C2275   1.291       .  A
C2275      C2386   1.494       .  S
O2276      C2278   1.289       .  A
O2277      C2278   1.293       .  A
C2278      C2393   1.486       .  S
Zr2279     O2280   2.427       .  S
Zr2279     O2285   2.376       .  S
O2280      H2323   0.990       .  S
Zr2282     O2283   2.426       .  S
Zr2282     O2285   2.379       .  S
O2283      H2327   0.990       .  S
O2286      H2313   0.966       .  S
O2287     Zr2299   2.459       .  S
O2287      C2289   1.291       .  A
O2288     Zr2306   2.463       .  S
O2288      C2289   1.294       .  A
C2289      C2374   1.498       .  S
O2290      C2292   1.292       .  A
O2291     Zr2305   2.449       .  S
O2291      C2292   1.291       .  A
C2292      C2381   1.485       .  S
O2293     Zr2302   2.429       .  S
O2293      C2295   1.283       .  A
O2294     Zr2306   2.473       .  S
O2294      C2295   1.294       .  A
C2295      C2378   1.486       .  S
O2296      C2298   1.291       .  A
O2297     Zr2305   2.445       .  S
O2297      C2298   1.288       .  A
C2298      C2369   1.482       .  S
Zr2299     O2300   2.429       .  S
Zr2299     O2301   2.434       .  S
Zr2299     O2307   2.387       .  S
Zr2299     O2309   2.357       .  S
O2300      H2320   0.990       .  S
O2300      H2325   0.990       .  S
O2301      H2321   0.990       .  S
Zr2302     O2303   2.433       .  S
Zr2302     O2307   2.366       .  S
Zr2302     O2312   2.374       .  S
Zr2305     O2308   2.406       .  S
Zr2305     O2310   2.395       .  S
Zr2305     O2311   2.394       .  S
Zr2306     O2307   2.400       .  S
Zr2306     O2309   2.396       .  S
Zr2306     O2312   2.382       .  S
O2307      H2315   0.966       .  S
O2310      H2314   0.965       .  S
O2311      H2316   0.966       .  S
C2329      H2330   1.111       .  S
C2329      C2335   1.554       .  S
C2329      C2334   1.540       .  S
C2329      C2333   1.524       .  S
C2331      H2332   1.109       .  S
C2331      C2337   1.552       .  S
C2331      C2336   1.519       .  S
C2331      C2338   1.550       .  S
C2333      C2336   1.355       .  D
C2333      C2447   1.435       .  S
C2334      C2337   1.380       .  D
C2334      C2382   1.496       .  S
C2335      C2338   1.384       .  D
C2335      C2410   1.489       .  S
C2336      C2446   1.409       .  S
C2337      C2377   1.508       .  S
C2338      C2414   1.520       .  S
C2339      H2340   1.112       .  S
C2339      C2345   1.549       .  S
C2339      C2344   1.552       .  S
C2339      C2343   1.518       .  S
C2341      H2342   1.110       .  S
C2341      C2347   1.543       .  S
C2341      C2346   1.521       .  S
C2341      C2348   1.548       .  S
C2343      C2346   1.352       .  D
C2343      C2444   1.417       .  S
C2344      C2347   1.385       .  D
C2344      C2406   1.510       .  S
C2345      C2348   1.386       .  D
C2345      C2385   1.501       .  S
C2346      C2441   1.419       .  S
C2347      C2401   1.503       .  S
C2348      C2390   1.509       .  S
C2349      H2350   1.109       .  S
C2349      C2355   1.550       .  S
C2349      C2354   1.540       .  S
C2349      C2353   1.521       .  S
C2351      H2352   1.110       .  S
C2351      C2357   1.553       .  S
C2351      C2356   1.520       .  S
C2351      C2358   1.549       .  S
C2353      C2356   1.355       .  D
C2353      C2436   1.421       .  S
C2354      C2357   1.381       .  D
C2354      C2430   1.498       .  S
C2355      C2358   1.387       .  D
C2355      C2370   1.512       .  S
C2356      C2434   1.417       .  S
C2357      C2425   1.512       .  S
C2358      C2373   1.503       .  S
C2359      H2360   1.109       .  S
C2359      C2365   1.566       .  S
C2359      C2364   1.561       .  S
C2359      C2363   1.520       .  S
C2361      H2362   1.113       .  S
C2361      C2367   1.535       .  S
C2361      C2366   1.523       .  S
C2361      C2368   1.537       .  S
C2363      C2366   1.356       .  D
C2363      C2437   1.431       .  S
C2364      C2367   1.385       .  D
C2364      C2422   1.517       .  S
C2365      C2368   1.384       .  D
C2365      C2394   1.507       .  S
C2366      C2440   1.413       .  S
C2367      C2417   1.495       .  S
C2368      C2398   1.510       .  S
C2369      C2370   1.358       .  D
C2369      H2371   1.080       .  S
C2370      H2372   1.086       .  S
C2373      C2374   1.357       .  D
C2373      H2375   1.086       .  S
C2374      H2376   1.085       .  S
C2377      C2378   1.343       .  D
C2377      H2379   1.083       .  S
C2378      H2380   1.086       .  S
C2381      C2382   1.352       .  D
C2381      H2383   1.086       .  S
C2382      H2384   1.086       .  S
C2385      C2386   1.354       .  D
C2385      H2387   1.086       .  S
C2386      H2388   1.084       .  S
C2389      C2390   1.357       .  D
C2389      H2391   1.082       .  S
C2390      H2392   1.086       .  S
C2393      C2394   1.353       .  D
C2393      H2395   1.083       .  S
C2394      H2396   1.086       .  S
C2397      C2398   1.357       .  D
C2397      H2399   1.084       .  S
C2398      H2400   1.086       .  S
C2401      C2402   1.352       .  D
C2401      H2403   1.087       .  S
C2402      H2404   1.083       .  S
C2405      C2406   1.359       .  D
C2405      H2407   1.084       .  S
C2406      H2408   1.086       .  S
C2409      C2410   1.334       .  D
C2409      H2411   1.088       .  S
C2410      H2412   1.084       .  S
C2413      C2414   1.361       .  D
C2413      H2415   1.081       .  S
C2414      H2416   1.086       .  S
C2417      C2418   1.348       .  D
C2417      H2419   1.086       .  S
C2418      H2420   1.086       .  S
C2421      C2422   1.360       .  D
C2421      H2423   1.084       .  S
C2422      H2424   1.086       .  S
C2425      C2426   1.356       .  D
C2425      H2427   1.086       .  S
C2426      H2428   1.084       .  S
C2429      C2430   1.351       .  D
C2429      H2431   1.085       .  S
C2430      H2432   1.087       .  S
C2433      C2434   1.188       .  T
C2435      C2436   1.191       .  T
C2437      C2438   1.197       .  T
C2439      C2440   1.186       .  T
C2441      C2442   1.188       .  T
C2443      C2444   1.187       .  T
C2445      C2446   1.183       .  T
C2447      C2448   1.198       .  T
