geometry optimzed in LAMMPS
_audit_creation_date              2020-11-30 
_audit_creation_method            'lammps2cif' 
_symmetry_space_group_name_H-M    'P1' 
_symmetry_Int_Tables_number       1 
_symmetry_cell_setting            triclinic 
loop_ 
_symmetry_equiv_pos_as_xyz 
  x,y,z 
_cell_length_a                    49.39862131 
_cell_length_b                    48.85956467590395 
_cell_length_c                    49.29921486530875 
_cell_angle_alpha                 90.3335730826342 
_cell_angle_beta                  91.02169720040831 
_cell_angle_gamma                 89.04522428436475 
loop_ 
_atom_site_label 
_atom_site_type_symbol 
_atom_site_fract_x 
_atom_site_fract_y 
_atom_site_fract_z 
_atom_site_charge 
N1          N  0.63828312  0.13533889  0.26887851    -0.00500
C2          C  0.62322149  0.14981761  0.28681885    -0.11300
C3          C  0.59729418  0.13924387  0.28962634    -0.06900
C4          C  0.59707896  0.11805526  0.27048772    -0.07500
C5          C  0.62218019  0.11619054  0.25830951    -0.11400
N6          N  0.33643972  0.11469113  0.28380139    -0.00500
C7          C  0.31941544  0.10211598  0.26628560    -0.11300
C8          C  0.32949281  0.07630730  0.25981977    -0.06900
C9          C  0.35417871  0.07364782  0.27377083    -0.07500
C10         C  0.35741312  0.09745749  0.28874998    -0.11400
C11         C  0.50835413  0.17570872  0.36244937     0.31100
C12         C  0.46917821  0.19661950  0.39635014     0.31100
C13         C  0.51769197  0.18444986  0.39079665    -0.05100
C14         C  0.49256727  0.20109555  0.35236720    -0.05900
C15         C  0.48467180  0.15617608  0.36840783    -0.05800
C16         C  0.49782527  0.19426714  0.40785993    -0.05100
C17         C  0.47307484  0.21218400  0.36964412    -0.05900
C18         C  0.46419377  0.16719779  0.38566138    -0.05800
C19         C  0.51005262  0.20202927  0.43164633    -0.31200
N20         N  0.53715183  0.19864982  0.42911214     0.15300
C21         C  0.54202403  0.18762581  0.40421967    -0.31200
H22         H  0.56181114  0.18363873  0.39585759     0.17300
C23         C  0.46337796  0.23597673  0.35770058    -0.30200
N24         N  0.47619138  0.23898577  0.33379780     0.14100
C25         C  0.49349971  0.21761701  0.33014391    -0.30100
C26         C  0.44002990  0.15692707  0.37575934    -0.30400
N27         N  0.44448440  0.13968544  0.35458121     0.14600
H28         H  0.42024286  0.16479097  0.38118776     0.17200
C29         C  0.47143395  0.13944993  0.34996979    -0.30400
H30         H  0.48091459  0.13002260  0.33270077     0.17200
H31         H  0.50697638  0.21535302  0.31318036     0.17200
H32         H  0.49977160  0.20999923  0.44923828     0.17300
H33         H  0.44896954  0.25051233  0.36606076     0.17200
N34         N  0.38450013  0.81919831  0.27967554    -0.00500
C35         C  0.37061727  0.83309421  0.26021283    -0.11300
C36         C  0.38689081  0.85216402  0.24885826    -0.06900
C37         C  0.41202561  0.84936801  0.26220669    -0.07500
C38         C  0.41015603  0.82847425  0.28129379    -0.11400
N39         N  0.67600702  0.87286485  0.23502542    -0.00500
C40         C  0.66195408  0.85786295  0.25291507    -0.11300
C41         C  0.63775588  0.87051530  0.25886228    -0.06900
C42         C  0.63710803  0.89476764  0.24387317    -0.07500
C43         C  0.66119916  0.89601953  0.22861853    -0.11400
C44         C  0.71631645  0.03150917  0.12790740     0.31100
C45         C  0.69610888  0.98782866  0.15681268     0.31100
C46         C  0.71553981  0.00375064  0.11380646    -0.05100
C47         C  0.73118767  0.02459738  0.15516133    -0.05900
C48         C  0.68652914  0.03493891  0.13748380    -0.05800
C49         C  0.70581659  0.98171602  0.12813878    -0.05100
C50         C  0.72029698  0.00288207  0.16962888    -0.05900
C51         C  0.67611259  0.01216463  0.15203155    -0.05800
C52         C  0.70526786  0.95984210  0.11049617    -0.31200
N53         N  0.71394974  0.96836099  0.08589404     0.15300
C54         C  0.72018174  0.99515659  0.08788486    -0.31200
H55         H  0.72672429  0.00783120  0.07139164     0.17300
C56         C  0.73394883  0.00101471  0.19391151    -0.30200
N57         N  0.75362709  0.01992710  0.19485852     0.14100
C58         C  0.75224140  0.03458488  0.17131685    -0.30100
C59         C  0.65859691  0.02300835  0.17084870    -0.30400
N60         N  0.65747709  0.05048090  0.16880811     0.14600
H61         H  0.65123297  0.01215774  0.18824820     0.17200
C62         C  0.67478684  0.05800865  0.14930762    -0.30400
H63         H  0.68198171  0.07867700  0.14711676     0.17200
H64         H  0.76534887  0.05132357  0.16646530     0.17200
H65         H  0.69895250  0.93938924  0.11533863     0.17300
H66         H  0.73026352  0.98635319  0.20970600     0.17200
C67         C  0.54316951  0.76760449  0.38663844     0.31100
C68         C  0.49986369  0.78679286  0.35432722     0.31100
C69         C  0.55004802  0.78986185  0.36539092    -0.05100
C70         C  0.52840143  0.74608741  0.36810240    -0.05900
C71         C  0.51956745  0.78183112  0.40121046    -0.05800
C72         C  0.52801889  0.79932988  0.34923352    -0.05100
C73         C  0.50656895  0.75600024  0.35215435    -0.05900
C74         C  0.49690183  0.79031837  0.38550539    -0.05800
C75         C  0.53833103  0.81600115  0.32949228    -0.31200
N76         N  0.56564139  0.81731942  0.33281807     0.15300
C77         C  0.57306992  0.80138976  0.35451554    -0.31200
H78         H  0.59379089  0.79726547  0.36092709     0.17300
C79         C  0.49853973  0.73514884  0.33498120    -0.30200
N80         N  0.51485071  0.71290329  0.33919390     0.14100
C81         C  0.53333899  0.71940071  0.35903111    -0.30100
C82         C  0.47510797  0.78754923  0.40294312    -0.30400
N83         N  0.48449975  0.78164740  0.42834638     0.14600
H84         H  0.45399786  0.78627615  0.39693332     0.17200
C85         C  0.51147305  0.77835981  0.42735411    -0.30400
H86         H  0.52360131  0.76960736  0.44372624     0.17200
H87         H  0.55008261  0.70621994  0.36534135     0.17200
H88         H  0.52690610  0.82561347  0.31310017     0.17300
H89         H  0.48260860  0.73635086  0.31966553     0.17200
C90         C  0.28579690  0.99968273  0.17927921     0.31100
C91         C  0.26890884  0.95961326  0.14351800     0.31100
C92         C  0.30108378  0.97180824  0.18077106    -0.05100
C93         C  0.25601637  0.99104057  0.18164387    -0.05900
C94         C  0.28732124  0.00683420  0.14881363    -0.05800
C95         C  0.29252833  0.95121031  0.16290763    -0.05100
C96         C  0.24746090  0.97052376  0.16385637    -0.05900
C97         C  0.27978891  0.98584925  0.13121752    -0.05800
C98         C  0.30703713  0.92774533  0.17012628    -0.31200
N99         N  0.32443306  0.93372203  0.19108521     0.15300
C100        C  0.32101047  0.96067819  0.19739546    -0.31200
H101        H  0.33196243  0.97152685  0.21318121     0.17300
C102        C  0.22090220  0.96498074  0.17040237    -0.30200
N103        N  0.21269420  0.98218739  0.19073437     0.14100
C104        C  0.23425108  0.99806589  0.19765178    -0.30100
C105        C  0.27860335  0.99601457  0.10538797    -0.30400
N106        N  0.28287468  0.02305437  0.10655585     0.14600
H107        H  0.27285934  0.98510933  0.08707455     0.17200
C108        C  0.28719166  0.03031556  0.13285959    -0.30400
H109        H  0.28733484  0.05135979  0.13971577     0.17200
H110        H  0.23418214  0.01390026  0.21307460     0.17200
H111        H  0.30418600  0.90746037  0.16179515     0.17300
H112        H  0.20878322  0.94908352  0.16122443     0.17200
N113        N  0.13308772  0.28803469  0.68523037    -0.00500
C114        C  0.10867084  0.28023343  0.67585210    -0.11300
C115        C  0.10227724  0.29423881  0.65213940    -0.06900
C116        C  0.12352281  0.31170278  0.64722990    -0.07500
C117        C  0.14251172  0.30657949  0.66759495    -0.11400
N118        N  0.16137524  0.28028488  0.38423865    -0.00500
C119        C  0.14447557  0.26446829  0.36893178    -0.11300
C120        C  0.12113407  0.25936039  0.38294923    -0.06900
C121        C  0.12407871  0.27429466  0.40753555    -0.07500
C122        C  0.14961992  0.28691669  0.40823163    -0.11400
C123        C  0.22644733  0.40552645  0.52455068     0.31100
C124        C  0.20200513  0.36669560  0.48889150     0.31100
C125        C  0.20887749  0.41654806  0.50056196    -0.05100
C126        C  0.24584415  0.38476063  0.50956066    -0.05900
C127        C  0.20622272  0.38516909  0.53684096    -0.05800
C128        C  0.19651192  0.39702429  0.48292195    -0.05100
C129        C  0.23344920  0.36623108  0.49115738    -0.05900
C130        C  0.19427752  0.36606510  0.51882654    -0.05800
C131        C  0.19335014  0.40923009  0.45819841    -0.31200
N132        N  0.20252783  0.43491588  0.45982322     0.15300
C133        C  0.21244556  0.43948514  0.48515564    -0.31200
H134        H  0.22572193  0.45617143  0.49049022     0.17300
C135        C  0.25322249  0.34812979  0.48268095    -0.30200
N136        N  0.27676502  0.35248889  0.49671708     0.14100
C137        C  0.27210331  0.37438653  0.51359755    -0.30100
C138        C  0.17429849  0.35331432  0.53235169    -0.30400
N139        N  0.17377892  0.36282817  0.55829786     0.14600
H140        H  0.16041660  0.33884758  0.52333232     0.17200
C141        C  0.19327688  0.38222876  0.56121201    -0.30400
H142        H  0.19792866  0.39351042  0.57956575     0.17200
H143        H  0.28576023  0.38080102  0.52958996     0.17200
H144        H  0.18978805  0.39853496  0.43918697     0.17300
H145        H  0.25016505  0.33227282  0.46774507     0.17200
N146        N  0.86405330  0.25798414  0.37520427    -0.00500
C147        C  0.87786447  0.24050603  0.35872423    -0.11300
C148        C  0.90109757  0.22990553  0.37144964    -0.06900
C149        C  0.89992665  0.24201634  0.39780801    -0.07500
C150        C  0.87662042  0.25948895  0.39988005    -0.11400
N151        N  0.89447164  0.22827104  0.69119836    -0.00500
C152        C  0.88092156  0.24661499  0.67530529    -0.11300
C153        C  0.89144524  0.24762067  0.64931583    -0.06900
C154        C  0.91248873  0.22792706  0.64955213    -0.07500
C155        C  0.91416880  0.21685006  0.67591122    -0.11400
C156        C  0.04524682  0.11696145  0.73606678     0.31100
C157        C  0.99872302  0.14560792  0.72357579     0.31100
C158        C  0.02038317  0.09977776  0.72861254    -0.05100
C159        C  0.03467926  0.13610716  0.75852605    -0.05900
C160        C  0.04737496  0.13706046  0.71232314    -0.05800
C161        C  0.99644905  0.11433178  0.72269568    -0.05100
C162        C  0.01070783  0.15051837  0.75253605    -0.05900
C163        C  0.02305170  0.15116834  0.70550820    -0.05800
C164        C  0.97549483  0.09729867  0.72928668    -0.31200
N165        N  0.98578498  0.07267060  0.73746922     0.15300
C166        C  0.01313056  0.07418809  0.73727431    -0.31200
H167        H  0.02701712  0.05847499  0.74460748     0.17300
C168        C  0.00599761  0.16745430  0.77458400    -0.30200
N169        N  0.02715415  0.16511264  0.79252611     0.14100
C170        C  0.04473713  0.14593900  0.78286569    -0.30100
C171        C  0.03008921  0.17651411  0.69614550    -0.30400
N172        N  0.05711466  0.17920931  0.69794082     0.14600
H173        H  0.01607337  0.19323158  0.69179880     0.17200
C174        C  0.06780662  0.15563843  0.70807453    -0.30400
H175        H  0.08840422  0.15352377  0.71573990     0.17200
H176        H  0.06409143  0.14056516  0.79217901     0.17200
H177        H  0.95437007  0.10337152  0.73043899     0.17300
H178        H  0.98850137  0.18058125  0.77760945     0.17200
C179        C  0.83061181  0.33276866  0.48918175     0.31100
C180        C  0.81095381  0.37212206  0.52593297     0.31100
C181        C  0.83117780  0.36307070  0.48025150    -0.05100
C182        C  0.80057975  0.33004664  0.49798169    -0.05900
C183        C  0.84502786  0.33365599  0.51772200    -0.05800
C184        C  0.82181227  0.38245354  0.49895166    -0.05100
C185        C  0.79061291  0.35008810  0.51603738    -0.05900
C186        C  0.83490756  0.35341532  0.53652546    -0.05800
C187        C  0.81736691  0.40660605  0.48526910    -0.31200
N188        N  0.82275890  0.40291367  0.45859504     0.15300
C189        C  0.83083262  0.37622723  0.45527333    -0.31200
H190        H  0.83362488  0.36624803  0.43585074     0.17300
C191        C  0.76442932  0.34280599  0.52230195    -0.30200
N192        N  0.75807306  0.31919966  0.50892977     0.14100
C193        C  0.78029917  0.31094180  0.49490863    -0.30100
C194        C  0.84108964  0.34285574  0.56223391    -0.30400
N195        N  0.85569300  0.31905252  0.56006135     0.14600
H196        H  0.83361523  0.35095661  0.58120785     0.17200
C197        C  0.85734558  0.31293980  0.53316928    -0.30400
H198        H  0.86472806  0.29350912  0.52536452     0.17200
H199        H  0.78175454  0.29187850  0.48378812     0.17200
H200        H  0.80869730  0.42504876  0.49397952     0.17300
H201        H  0.75142079  0.35330203  0.53654009     0.17200
C202        C  0.98206416  0.15338618  0.31789176     0.31100
C203        C  0.01950638  0.11307651  0.30085571     0.31100
C204        C  0.97585946  0.12363359  0.32444354    -0.05100
C205        C  0.98747072  0.15206870  0.28681274    -0.05900
C206        C  0.01115831  0.15591559  0.32908338    -0.05800
C207        C  0.99464957  0.10384322  0.31641715    -0.05100
C208        C  0.00588237  0.13127820  0.27806755    -0.05900
C209        C  0.03080176  0.13620841  0.32079952    -0.05800
C210        C  0.98267867  0.07889198  0.31921897    -0.31200
N211        N  0.95689325  0.08277687  0.32761005     0.15300
C212        C  0.95250041  0.11012264  0.33075745    -0.31200
H213        H  0.93296227  0.11972291  0.33426435     0.17300
C214        C  0.01422215  0.13902392  0.25228897    -0.30200
N215        N  0.00168219  0.16291539  0.24507269     0.14100
C216        C  0.98716959  0.17177725  0.26651123    -0.30100
C217        C  0.05569141  0.14822128  0.32830986    -0.30400
N218        N  0.05113800  0.17311924  0.34092927     0.14600
H219        H  0.07555073  0.14018348  0.32338419     0.17200
C220        C  0.02410075  0.17774678  0.34084283    -0.30400
H221        H  0.01446281  0.19664477  0.34745624     0.17200
H222        H  0.97923919  0.19242350  0.26782412     0.17200
H223        H  0.99131166  0.05942188  0.31293883     0.17300
H224        H  0.02994700  0.12919936  0.24053138     0.17200
N225        N  0.23092250  0.65337507  0.16717135    -0.00500
C226        C  0.24968501  0.63898450  0.18158604    -0.11300
C227        C  0.25642712  0.61511481  0.16793863    -0.06900
C228        C  0.24133871  0.61474871  0.14404255    -0.07500
C229        C  0.22549547  0.63852202  0.14448059    -0.11400
N230        N  0.25519084  0.34364299  0.14941231    -0.00500
C231        C  0.27413313  0.35823914  0.16363269    -0.11300
C232        C  0.28354384  0.38045723  0.14862504    -0.06900
C233        C  0.26846477  0.37820174  0.12405796    -0.07500
C234        C  0.25125416  0.35554029  0.12493353    -0.11400
C235        C  0.40386242  0.50247807  0.20778698     0.31100
C236        C  0.36693571  0.46409857  0.18711091     0.31100
C237        C  0.41497392  0.48090309  0.18791060    -0.05100
C238        C  0.38899369  0.48496783  0.22890486    -0.05900
C239        C  0.37965791  0.51407789  0.19143593    -0.05800
C240        C  0.39662747  0.46075505  0.17814735    -0.05100
C241        C  0.37115457  0.46471252  0.21837941    -0.05900
C242        C  0.36110231  0.49470902  0.18086159    -0.05800
C243        C  0.41193359  0.43683436  0.17718680    -0.31200
N244        N  0.43802784  0.44200147  0.18371612     0.15300
C245        C  0.44011384  0.46880936  0.18962245    -0.31200
H246        H  0.45763767  0.47784265  0.19940579     0.17300
C247        C  0.35235850  0.46025218  0.23806372    -0.30200
N248        N  0.35580185  0.47829181  0.25861980     0.14100
C249        C  0.37753425  0.49365045  0.25302516    -0.30100
C250        C  0.33697469  0.50856537  0.17686871    -0.30400
N251        N  0.33973796  0.53500820  0.18486441     0.14600
H252        H  0.31833536  0.49944035  0.16985770     0.17200
C253        C  0.36547989  0.53837332  0.19416849    -0.30400
H254        H  0.37276294  0.55649139  0.20450733     0.17200
H255        H  0.38218503  0.51257964  0.26347147     0.17200
H256        H  0.40372486  0.41642150  0.17695374     0.17300
H257        H  0.33555635  0.44649324  0.23643789     0.17200
N258        N  0.27111799  0.35987637  0.86152955    -0.00500
C259        C  0.28548553  0.37577864  0.84456235    -0.11300
C260        C  0.28997765  0.40173845  0.85678167    -0.06900
C261        C  0.27621146  0.40037401  0.88182060    -0.07500
C262        C  0.26508613  0.37461465  0.88379815    -0.11400
N263        N  0.26615608  0.66212686  0.88003826    -0.00500
C264        C  0.24682816  0.67656682  0.89371774    -0.11300
C265        C  0.23956703  0.66318652  0.91713021    -0.06900
C266        C  0.25596989  0.63919145  0.91699558    -0.07500
C267        C  0.27296132  0.63920632  0.89417109    -0.11400
C268        C  0.10971511  0.72905346  0.02048851     0.31100
C269        C  0.15135481  0.71026686  0.98680438     0.31100
C270        C  0.10147233  0.71068970  0.99615050    -0.05100
C271        C  0.12667361  0.75134066  0.00640087    -0.05900
C272        C  0.13287996  0.71157145  0.03388280    -0.05800
C273        C  0.12269409  0.70098906  0.97946085    -0.05100
C274        C  0.14718254  0.74189995  0.98897487    -0.05900
C275        C  0.15312491  0.70213172  0.01647237    -0.05800
C276        C  0.11163103  0.69651636  0.95423253    -0.31200
N277        N  0.08497891  0.70210284  0.95474567     0.15300
C278        C  0.07856223  0.71165985  0.97967731    -0.31200
H279        H  0.05961519  0.72191328  0.98438536     0.17300
C280        C  0.16212866  0.76447094  0.98227299    -0.30200
N281        N  0.15299827  0.78702429  0.99610838     0.14100
C282        C  0.13164934  0.77878929  0.01120642    -0.30100
C283        C  0.17108382  0.68648174  0.03095056    -0.30400
N284        N  0.16403346  0.68705811  0.05736566     0.14600
H285        H  0.18769794  0.67503174  0.02227184     0.17200
C286        C  0.14073054  0.70238349  0.05942360    -0.30400
H287        H  0.13071133  0.70721329  0.07820246     0.17200
H288        H  0.12167154  0.79090823  0.02655481     0.17200
H289        H  0.12274719  0.69384576  0.93564422     0.17300
H290        H  0.17930308  0.76397159  0.96906633     0.17200
C291        C  0.36137560  0.48836101  0.81477201     0.31100
C292        C  0.40350450  0.52271693  0.80182177     0.31100
C293        C  0.38968704  0.47540156  0.81608032    -0.05100
C294        C  0.35989848  0.50098317  0.78582930    -0.05900
C295        C  0.36386885  0.51445289  0.83229272    -0.05800
C296        C  0.41025244  0.49234765  0.80778361    -0.05100
C297        C  0.38132288  0.51815973  0.77844698    -0.05900
C298        C  0.38477896  0.53248080  0.82633567    -0.05800
C299        C  0.42833766  0.47506549  0.79467787    -0.31200
N300        N  0.42258361  0.44880520  0.79918960     0.15300
C301        C  0.39832141  0.44843282  0.81146225    -0.31200
H302        H  0.38667541  0.43015570  0.81441026     0.17300
C303        C  0.37569961  0.52470240  0.75099743    -0.30200
N304        N  0.35166617  0.51309176  0.74244694     0.14100
C305        C  0.34220079  0.49912426  0.76398794    -0.30100
C306        C  0.37485813  0.55816375  0.83644715    -0.30400
N307        N  0.35019812  0.55564931  0.84913140     0.14600
H308        H  0.38447446  0.57754347  0.83312533     0.17200
C309        C  0.34346185  0.52909025  0.84502753    -0.30400
H310        H  0.32358044  0.52094750  0.84791320     0.17200
H311        H  0.32364695  0.48784091  0.76373893     0.17200
H312        H  0.44447401  0.48118183  0.78159456     0.17300
H313        H  0.38826451  0.53705373  0.73832616     0.17200
C314        C  0.14082753  0.29614090  0.99602427     0.31100
C315        C  0.17470890  0.31240602  0.03850262     0.31100
C316        C  0.12678190  0.30835199  0.02079582    -0.05100
C317        C  0.15984393  0.27393520  0.00851309    -0.05900
C318        C  0.16111578  0.31831703  0.98904148    -0.05800
C319        C  0.14326233  0.31548301  0.04326260    -0.05100
C320        C  0.17669937  0.28182130  0.03016447    -0.05900
C321        C  0.17861584  0.32660081  0.01033977    -0.05800
C322        C  0.12655725  0.31032489  0.06558329    -0.31200
N323        N  0.10095668  0.30377591  0.05689109     0.15300
C324        C  0.10128614  0.30268195  0.02967416    -0.31200
H325        H  0.08504015  0.29424099  0.01738282     0.17300
C326        C  0.19400050  0.25979347  0.03536066    -0.30200
N327        N  0.18897652  0.23936175  0.01697370     0.14100
C328        C  0.16858078  0.24838951  0.00020797    -0.30100
C329        C  0.20085683  0.33801274  0.99765835    -0.30400
N330        N  0.19682965  0.33770010  0.97021037     0.14600
H331        H  0.21923235  0.34484727  0.00764392     0.17200
C332        C  0.17317853  0.32493151  0.96493694    -0.30400
H333        H  0.16631398  0.31889862  0.94483869     0.17200
H334        H  0.16171620  0.23824214  0.98188879     0.17200
H335        H  0.13349620  0.30841076  0.08643441     0.17300
H336        H  0.20972368  0.25920394  0.05087457     0.17200
N337        N  0.75993165  0.36850579  0.16215575    -0.00500
C338        C  0.74029651  0.38331045  0.17470189    -0.11300
C339        C  0.73197613  0.40457762  0.15759237    -0.06900
C340        C  0.74680965  0.40209556  0.13417514    -0.07500
C341        C  0.76383145  0.37983926  0.13766565    -0.11400
N342        N  0.73604393  0.67795837  0.10990794    -0.00500
C343        C  0.71776021  0.66766446  0.12692632    -0.11300
C344        C  0.70813893  0.64296843  0.11728651    -0.06900
C345        C  0.72241273  0.63851637  0.09362361    -0.07500
C346        C  0.73972162  0.66018268  0.08952629    -0.11400
N347        N  0.79650157  0.65665256  0.85777803    -0.00500
C348        C  0.78100081  0.63839762  0.84416080    -0.11300
C349        C  0.77602586  0.61670054  0.86052299    -0.06900
C350        C  0.78925332  0.62129501  0.88515058    -0.07500
C351        C  0.80196884  0.64670924  0.88319838    -0.11400
N352        N  0.76545211  0.36462509  0.86573701    -0.00500
C353        C  0.78170047  0.34979279  0.88292647    -0.11300
C354        C  0.78960012  0.36467717  0.90520632    -0.06900
C355        C  0.77696931  0.39078584  0.90018232    -0.07500
C356        C  0.76171690  0.39060731  0.87489568    -0.11400
C357        C  0.64339978  0.50527549  0.78863358     0.31100
C358        C  0.68409712  0.46693214  0.80744741     0.31100
C359        C  0.63458190  0.47921107  0.80245245    -0.05100
C360        C  0.66368121  0.49315930  0.76647745    -0.05900
C361        C  0.66395046  0.51535136  0.81044139    -0.05800
C362        C  0.65405056  0.45944814  0.81063506    -0.05100
C363        C  0.68439767  0.47446116  0.77595445    -0.05900
C364        C  0.68387245  0.49599728  0.81961242    -0.05800
C365        C  0.63998711  0.43518614  0.81233274    -0.31200
N366        N  0.61322239  0.44073805  0.80746722     0.15300
C367        C  0.60993130  0.46770228  0.80292878    -0.31200
H368        H  0.59104430  0.47759002  0.79679618     0.17300
C369        C  0.70139487  0.46983655  0.75365256    -0.30200
N370        N  0.69242327  0.48421311  0.73119362     0.14100
C371        C  0.66949109  0.49832608  0.73908872    -0.30100
C372        C  0.70456018  0.51027285  0.83130824    -0.30400
N373        N  0.69841021  0.53721384  0.83008757     0.14600
H374        H  0.72392592  0.50181191  0.83804258     0.17200
C375        C  0.67422629  0.54077844  0.81690978    -0.30400
H376        H  0.66601708  0.56035034  0.81029142     0.17200
H377        H  0.65833511  0.51254593  0.72619579     0.17200
H378        H  0.64885407  0.41484740  0.81402095     0.17300
H379        H  0.71941891  0.45704456  0.75389463     0.17200
C380        C  0.86173320  0.31258545  0.99382269     0.31100
C381        C  0.89545601  0.29573307  0.03737828     0.31100
C382        C  0.86041367  0.32972736  0.02045436    -0.05100
C383        C  0.85702332  0.28300268  0.00524966    -0.05900
C384        C  0.89282425  0.31135162  0.98889633    -0.05800
C385        C  0.87724676  0.32099720  0.04260343    -0.05100
C386        C  0.87437807  0.27486139  0.02696158    -0.05900
C387        C  0.90904635  0.30404291  0.01143509    -0.05800
C388        C  0.86374973  0.32851117  0.06576958    -0.31200
N389        N  0.84065247  0.34246351  0.05912083     0.15300
C390        C  0.83833904  0.34292814  0.03165823    -0.31200
H391        H  0.82089968  0.35046143  0.02026903     0.17300
C392        C  0.86683630  0.24912393  0.03505270    -0.30200
N393        N  0.84569545  0.24079830  0.01933174     0.14100
C394        C  0.83958915  0.26104696  0.00108981    -0.30100
C395        C  0.93468034  0.29903685  0.00316953    -0.30400
N396        N  0.93506386  0.30040743  0.97600545     0.14600
H397        H  0.95134194  0.29136498  0.01568382     0.17200
C398        C  0.90966027  0.30738183  0.96669806    -0.30400
H399        H  0.90330741  0.30703454  0.94558089     0.17200
H400        H  0.82372944  0.25947983  0.98584733     0.17200
H401        H  0.86891192  0.32151276  0.08602766     0.17300
H402        H  0.87552928  0.23756684  0.05182252     0.17200
C403        C  0.86508893  0.70021321  0.97170964     0.31100
C404        C  0.89846952  0.71973824  0.01253881     0.31100
C405        C  0.89504424  0.69839752  0.96679513    -0.05100
C406        C  0.86042508  0.73061180  0.97987710    -0.05900
C407        C  0.86298670  0.68565373  0.99893261    -0.05800
C408        C  0.91209313  0.70796400  0.98703356    -0.05100
C409        C  0.87786543  0.74077707  0.00052434    -0.05900
C410        C  0.87905274  0.69605086  0.02079317    -0.05800
C411        C  0.93800787  0.70588000  0.97700373    -0.31200
N412        N  0.93653656  0.69552220  0.95129216     0.15300
C413        C  0.91025024  0.69078758  0.94513036    -0.31200
H414        H  0.90249382  0.68430136  0.92548530     0.17300
C415        C  0.86404041  0.76218878  0.01299592    -0.30200
N416        N  0.83928764  0.76557873  0.00097368     0.14100
C417        C  0.83660652  0.74573631  0.98185624    -0.30100
C418        C  0.86252082  0.69278560  0.04339566    -0.30400
N419        N  0.83968806  0.67898705  0.03603656     0.14600
H420        H  0.86552060  0.70250031  0.06297488     0.17200
C421        C  0.83987753  0.67510552  0.00911513    -0.30400
H422        H  0.82236492  0.66891737  0.99718234     0.17200
H423        H  0.81795128  0.74151530  0.97101810     0.17200
H424        H  0.95633218  0.71252070  0.98722028     0.17300
H425        H  0.87075638  0.77306486  0.03101722     0.17200
C426        C  0.61013128  0.51122670  0.21188139     0.31100
C427        C  0.64748273  0.48014974  0.18521518     0.31100
C428        C  0.62544396  0.52577914  0.18927692    -0.05100
C429        C  0.63393269  0.49966326  0.23016811    -0.05900
C430        C  0.59936895  0.48505970  0.19800133    -0.05800
C431        C  0.64428386  0.50984062  0.17558876    -0.05100
C432        C  0.65221959  0.48331290  0.21590823    -0.05900
C433        C  0.61862625  0.46873232  0.18445662    -0.05800
C434        C  0.65989681  0.52736661  0.16072094    -0.31200
N435        N  0.65112549  0.55348750  0.16507819     0.15300
C436        C  0.63051517  0.55284327  0.18297235    -0.31200
H437        H  0.62091515  0.57075302  0.19186238     0.17300
C438        C  0.67141630  0.47330574  0.23366417    -0.30200
N439        N  0.66736787  0.48423842  0.25852318     0.14100
C440        C  0.64447370  0.50047109  0.25679663    -0.30100
C441        C  0.61066368  0.44184955  0.18819697    -0.30400
N442        N  0.58717195  0.44141421  0.20162240     0.14600
H443        H  0.62302289  0.42366779  0.18504956     0.17200
C444        C  0.58042732  0.46745254  0.20821419    -0.30400
H445        H  0.56466273  0.47306014  0.22227892     0.17200
H446        H  0.63698050  0.51287085  0.27330815     0.17200
H447        H  0.67754248  0.52174107  0.14910185     0.17300
H448        H  0.68739888  0.45885024  0.22872891     0.17200
N449        N  0.41493595  0.17263234  0.74524894    -0.00500
C450        C  0.43203774  0.15421070  0.73354700    -0.11300
C451        C  0.43004157  0.13022952  0.74907269    -0.06900
C452        C  0.41229830  0.13438048  0.77037142    -0.07500
C453        C  0.40346405  0.16087788  0.76706272    -0.11400
N454        N  0.67964539  0.13979166  0.75205406    -0.00500
C455        C  0.69265378  0.12492951  0.77162855    -0.11300
C456        C  0.68167919  0.09886998  0.77381633    -0.06900
C457        C  0.66045673  0.09813995  0.75459422    -0.07500
C458        C  0.65982372  0.12372998  0.74168856    -0.11400
N459        N  0.62373205  0.81689494  0.77725045    -0.00500
C460        C  0.63237989  0.83609315  0.79511278    -0.11300
C461        C  0.61389610  0.85731116  0.79649752    -0.06900
C462        C  0.59313306  0.85001262  0.77849134    -0.07500
C463        C  0.59999291  0.82541517  0.76624805    -0.11400
N464        N  0.36878869  0.86131869  0.77059688    -0.00500
C465        C  0.35745907  0.87862375  0.78928476    -0.11300
C466        C  0.37171567  0.90293237  0.79274303    -0.06900
C467        C  0.39294497  0.90046699  0.77435482    -0.07500
C468        C  0.39082225  0.87460834  0.76151657    -0.11400
C469        C  0.49337804  0.76996149  0.63878274     0.31100
C470        C  0.53488667  0.78433527  0.67372456     0.31100
C471        C  0.48603193  0.79199749  0.66000162    -0.05100
C472        C  0.50546134  0.74666458  0.65710668    -0.05900
C473        C  0.51859597  0.78233408  0.62578029    -0.05800
C474        C  0.50722554  0.79961363  0.67716923    -0.05100
C475        C  0.52682050  0.75422940  0.67406043    -0.05900
C476        C  0.54090066  0.78817073  0.64288557    -0.05800
C477        C  0.49656078  0.81763369  0.69608409    -0.31200
N478        N  0.46923924  0.82028560  0.69208486     0.15300
C479        C  0.46275841  0.80444266  0.67001102    -0.31200
H480        H  0.44238277  0.80078552  0.66265746     0.17300
C481        C  0.53524541  0.73163906  0.68850983    -0.30200
N482        N  0.51870594  0.71037912  0.68259270     0.14100
C483        C  0.50031384  0.71946035  0.66341513    -0.30100
C484        C  0.56334510  0.78248806  0.62626149    -0.30400
N485        N  0.55488505  0.77691959  0.60013264     0.14600
H486        H  0.58405080  0.77988873  0.63341973     0.17200
C487        C  0.52765075  0.77816929  0.59999402    -0.30400
H488        H  0.51484301  0.77375712  0.58260004     0.17200
H489        H  0.48385125  0.70749364  0.65516184     0.17200
H490        H  0.50826649  0.82754472  0.71186197     0.17300
H491        H  0.55250350  0.73109366  0.70224943     0.17200
C492        C  0.33511525  0.99210200  0.86946878     0.31100
C493        C  0.31668353  0.03561998  0.90135517     0.31100
C494        C  0.35088869  0.01957158  0.86749559    -0.05100
C495        C  0.30591870  0.00226931  0.86376560    -0.05900
C496        C  0.33395019  0.98672556  0.90076089    -0.05800
C497        C  0.34140543  0.04194558  0.88329621    -0.05100
C498        C  0.29663418  0.02413564  0.87978507    -0.05900
C499        C  0.32666904  0.00975184  0.91647520    -0.05800
C500        C  0.34948586  0.06541435  0.86962838    -0.31200
N501        N  0.36454686  0.05845187  0.84748209     0.15300
C502        C  0.36510243  0.03058901  0.84617593    -0.31200
H503        H  0.37415259  0.01873097  0.83006137     0.17300
C504        C  0.27145507  0.03176466  0.86951459    -0.30200
N505        N  0.26501306  0.01490537  0.84850267     0.14100
C506        C  0.28588321  0.99694701  0.84466201    -0.30100
C507        C  0.31826225  0.00088583  0.94129049    -0.30400
N508        N  0.31578021  0.97358526  0.94087761     0.14600
H509        H  0.31034261  0.01376123  0.95730621     0.17200
C510        C  0.32440682  0.96465843  0.91609725    -0.30400
H511        H  0.32078049  0.94427494  0.90830397     0.17200
H512        H  0.28649312  0.98148162  0.82887343     0.17200
H513        H  0.34293037  0.08609801  0.87441793     0.17300
H514        H  0.25900391  0.04884271  0.87624687     0.17200
C515        C  0.70798687  0.01348356  0.85610674     0.31100
C516        C  0.72064661  0.97167738  0.89177463     0.31100
C517        C  0.69029022  0.98732089  0.85402362    -0.05100
C518        C  0.73685411  0.00117061  0.85423063    -0.05900
C519        C  0.70721461  0.02118271  0.88717495    -0.05800
C520        C  0.69714511  0.96664992  0.87221370    -0.05100
C521        C  0.74363559  0.98043891  0.87275407    -0.05900
C522        C  0.71256466  0.99910743  0.90480825    -0.05800
C523        C  0.68153203  0.94441036  0.86645906    -0.31200
N524        N  0.66479461  0.95023848  0.84506930     0.15300
C525        C  0.67001442  0.97649144  0.83718655    -0.31200
H526        H  0.66024988  0.98687474  0.82025116     0.17300
C527        C  0.77088184  0.97460026  0.86937966    -0.30200
N528        N  0.78004915  0.98934163  0.84828080     0.14100
C529        C  0.75954812  0.00590869  0.83907900    -0.30100
C530        C  0.72132325  0.00931177  0.92931965    -0.30400
N531        N  0.72282203  0.03683908  0.92832238     0.14600
H532        H  0.72845153  0.99673022  0.94594623     0.17200
C533        C  0.71575266  0.04409283  0.90231621    -0.30400
H534        H  0.71950353  0.06401309  0.89395361     0.17200
H535        H  0.76114709  0.02046361  0.82274426     0.17200
H536        H  0.68333461  0.92477066  0.87643015     0.17300
H537        H  0.78348287  0.96078722  0.88131409     0.17200
C538        C  0.50655214  0.18272259  0.64413475     0.31100
C539        C  0.54426265  0.20427167  0.61011932     0.31100
C540        C  0.50166728  0.17714285  0.61362535    -0.05100
C541        C  0.50930297  0.21396889  0.64489484    -0.05900
C542        C  0.53647754  0.17329696  0.64892085    -0.05800
C543        C  0.52103548  0.18840987  0.59639399    -0.05100
C544        C  0.52873190  0.22530979  0.62791687    -0.05900
C545        C  0.55549496  0.18401886  0.63143005    -0.05800
C546        C  0.50722154  0.19622197  0.57316492    -0.31200
N547        N  0.48069180  0.18982248  0.57460175     0.15300
C548        C  0.47730197  0.17812862  0.59923100    -0.31200
H549        H  0.45794033  0.17373479  0.60786509     0.17300
C550        C  0.53638711  0.24953788  0.64051094    -0.30200
N551        N  0.52125115  0.25371082  0.66293706     0.14100
C552        C  0.50517389  0.23189795  0.66589124    -0.30100
C553        C  0.58083148  0.18001924  0.64341130    -0.30400
N554        N  0.57813099  0.16671304  0.66737963     0.14600
H555        H  0.59945970  0.18828635  0.63604642     0.17200
C556        C  0.55117110  0.16402266  0.67128505    -0.30400
H557        H  0.54279284  0.15763119  0.69012815     0.17200
H558        H  0.49299992  0.22808843  0.68345834     0.17200
H559        H  0.51540118  0.21034259  0.55880102     0.17300
H560        H  0.55364351  0.26171522  0.63540343     0.17200
O561        O  0.80111695  0.79069480  0.73823132    -0.79800
O562        O  0.78784052  0.81157782  0.86297874    -0.64500
O563        O  0.80351042  0.81317214  0.78872146    -1.11100
C564        C  0.88491607  0.77384280  0.81626000     1.07100
O565        O  0.82940154  0.81538091  0.88069939    -0.77700
O566        O  0.85003122  0.83975399  0.83697466    -0.65300
Ni567      Ni  0.77608171  0.79686497  0.76632323     1.34900
C568        C  0.85656568  0.84414332  0.81264767     0.85800
O569        O  0.76329625  0.83335881  0.82075829    -0.78300
O570        O  0.74672564  0.80382597  0.79070585    -0.88500
C571        C  0.80383605  0.81613651  0.88259991     0.85400
O572        O  0.78503240  0.76248430  0.78259523    -0.66700
O573        O  0.88310123  0.79598466  0.82950597    -0.86000
C574        C  0.78169510  0.75874606  0.80776238     0.86200
C575        C  0.74364216  0.82314087  0.80776690     1.07800
H576        H  0.82434349  0.77214102  0.83622192     0.39600
O577        O  0.82772449  0.79075631  0.83027423    -1.08700
O578        O  0.85628456  0.82511541  0.79471698    -0.65300
Ni579      Ni  0.83585379  0.79125103  0.79277477     1.26300
O580        O  0.77636060  0.77843797  0.82380442    -0.65600
O581        O  0.86708787  0.76798496  0.79849278    -0.77900
C582        C  0.82648414  0.79255865  0.73571124     0.85600
O583        O  0.84315766  0.79238401  0.75549759    -0.65000
Ni584      Ni  0.85474512  0.80530770  0.85368047     1.27400
Ni585      Ni  0.79550155  0.81235092  0.82604006     1.26100
H586        H  0.80704254  0.83173779  0.78283108     0.40100
O587        O  0.91290768  0.19046214  0.85291475    -0.79800
O588        O  0.79792607  0.18395069  0.82470576    -0.64500
O589        O  0.86217371  0.19126646  0.86724544    -1.11100
C590        C  0.86792629  0.09584013  0.84746946     1.07100
O591        O  0.78844587  0.15286013  0.85460654    -0.77700
O592        O  0.81901767  0.12346051  0.88858434    -0.65300
Ni593      Ni  0.88717321  0.21861378  0.85899842     1.34900
C594        C  0.83539849  0.13380799  0.90552328     0.85800
O595        O  0.82159524  0.22738692  0.84940211    -0.78300
O596        O  0.86042176  0.24645820  0.86465733    -0.88500
C597        C  0.78182283  0.16637263  0.83369461     0.85400
O598        O  0.88283786  0.22231961  0.82077704    -0.66700
O599        O  0.84209594  0.09711330  0.84575029    -0.86000
C600        C  0.86768604  0.21066358  0.80349051     0.86200
C601        C  0.83511483  0.24762039  0.85878704     1.07800
H602        H  0.84688061  0.14769635  0.82386195     0.39600
O603        O  0.84151080  0.15138199  0.84230315    -1.08700
O604        O  0.85698868  0.14585829  0.89865504    -0.65300
Ni605      Ni  0.87371322  0.15334998  0.86379105     1.26300
O606        O  0.84807737  0.19569537  0.81039912    -0.65600
O607        O  0.88293932  0.11492445  0.85738759    -0.77900
C608        C  0.92152114  0.17894123  0.87422881     0.85600
O609        O  0.90771553  0.15937623  0.88354512    -0.65000
Ni610      Ni  0.81538554  0.12500985  0.85034839     1.27400
Ni611      Ni  0.83075048  0.18916915  0.84507361     1.26100
H612        H  0.85649186  0.19461789  0.88563186     0.40100
N613        N  0.88445861  0.97376041  0.80206325    -0.00500
C614        C  0.90064725  0.99503169  0.79737636    -0.11300
C615        C  0.92047419  0.98759410  0.77919597    -0.06900
C616        C  0.91703706  0.96002012  0.77313049    -0.07500
C617        C  0.89469602  0.95201119  0.78811787    -0.11400
N618        N  0.03923175  0.22790401  0.88964692    -0.00500
C619        C  0.06063925  0.24193609  0.89928233    -0.11300
C620        C  0.05385506  0.25770507  0.92184126    -0.06900
C621        C  0.02625082  0.25284504  0.92534685    -0.07500
C622        C  0.01830695  0.23398719  0.90562937    -0.11400
O623        O  0.21913359  0.23427510  0.76230597    -0.79800
O624        O  0.27222590  0.17925868  0.86775565    -0.64500
O625        O  0.23717199  0.19724343  0.80012532    -1.11100
C626        C  0.16256264  0.20435560  0.86050761     1.07100
O627        O  0.24139694  0.14893499  0.86430158    -0.77700
O628        O  0.19126508  0.14589186  0.84625659    -0.65300
Ni629      Ni  0.25293053  0.22537619  0.77939699     1.34900
C630        C  0.18684083  0.14710824  0.82107285     0.85800
O631        O  0.28833050  0.18107081  0.81672115    -0.78300
O632        O  0.28956325  0.21923961  0.79270369    -0.88500
C633        C  0.26088836  0.15868409  0.87764940     0.85400
O634        O  0.24552485  0.25066789  0.80743450    -0.66700
O635        O  0.17665423  0.18897080  0.87641515    -0.86000
C636        C  0.25608808  0.24958676  0.83101886     0.86200
C637        C  0.30041531  0.19733654  0.80166165     1.07800
H638        H  0.22257693  0.21293964  0.86014967     0.39600
O639        O  0.22170547  0.19659967  0.84916125    -1.08700
O640        O  0.19195357  0.16819532  0.80722619    -0.65300
Ni641      Ni  0.20273274  0.20496649  0.81706140     1.26300
O642        O  0.26558757  0.22730763  0.84132845    -0.65600
O643        O  0.16966887  0.21114769  0.83652204    -0.77900
C644        C  0.19412108  0.22975162  0.76512969     0.85600
O645        O  0.18454670  0.21635212  0.78463039    -0.65000
Ni646      Ni  0.20912591  0.16871874  0.87126615     1.27400
Ni647      Ni  0.25570553  0.18926999  0.83358983     1.26100
H648        H  0.23635710  0.18082662  0.78920128     0.40100
N649        N  0.16708917  0.02053118  0.78594711    -0.00500
C650        C  0.15127460  0.99943841  0.77837443    -0.11300
C651        C  0.12902638  0.00904616  0.76340065    -0.06900
C652        C  0.13102157  0.03744079  0.76261084    -0.07500
C653        C  0.15484741  0.04362902  0.77652210    -0.11400
O654        O  0.25317679  0.82693396  0.83340599    -0.79800
O655        O  0.13901354  0.79774321  0.83337485    -0.64500
O656        O  0.20118612  0.83521287  0.81556204    -1.11100
C657        C  0.18828724  0.88400497  0.89412266     1.07100
O658        O  0.11489550  0.83371049  0.84735214    -0.77700
O659        O  0.14316767  0.88034335  0.83531673    -0.65300
Ni660      Ni  0.23178254  0.81525323  0.80314012     1.34900
C661        C  0.16388171  0.89315325  0.82770187     0.85800
O662        O  0.16915727  0.79777568  0.78990756    -0.78300
O663        O  0.21057806  0.80389457  0.77263361    -0.88500
C664        C  0.11665549  0.80904924  0.83846771     0.85400
O665        O  0.22786438  0.78120066  0.82118960    -0.66700
O666        O  0.16307626  0.88260713  0.88772793    -0.86000
C667        C  0.21077269  0.77339432  0.83816807     0.86200
C668        C  0.18546537  0.79838413  0.77018255     1.07800
H669        H  0.17510740  0.82270387  0.87253061     0.39600
O670        O  0.17168070  0.83512603  0.85762033    -1.08700
O671        O  0.18791542  0.88554106  0.83401648    -0.65300
Ni672      Ni  0.20440886  0.85291576  0.84931927     1.26300
O673        O  0.18841497  0.78570885  0.84175633    -0.65600
O674        O  0.20651229  0.86979065  0.88289575    -0.77900
C675        C  0.25748371  0.85226421  0.83556489     0.85600
O676        O  0.23801018  0.86854323  0.84040147    -0.65000
Ni677      Ni  0.14088318  0.85741475  0.86637794     1.27400
Ni678      Ni  0.17014758  0.81585987  0.82415971     1.26100
H679        H  0.19631677  0.84839470  0.80176790     0.40100
N680        N  0.00415951  0.73626397  0.82117932    -0.00500
C681        C  0.98636665  0.72178105  0.83554940    -0.11300
C682        C  0.99960308  0.71002009  0.85790039    -0.06900
C683        C  0.02637754  0.71766860  0.85652392    -0.07500
C684        C  0.02818414  0.73490227  0.83452982    -0.11400
N685        N  0.21137295  0.88683078  0.01251683    -0.00500
C686        C  0.21949605  0.89232311  0.03795955    -0.11300
C687        C  0.24039904  0.91090443  0.03905981    -0.06900
C688        C  0.24463576  0.91815601  0.01199339    -0.07500
C689        C  0.22552088  0.90362454  0.99675195    -0.11400
O690        O  0.16037123  0.81289614  0.26406948    -0.79800
O691        O  0.17031118  0.84889692  0.14918653    -0.64500
O692        O  0.16758429  0.80338395  0.21017918    -1.11100
C693        C  0.26097483  0.82320182  0.21818947     1.07100
O694        O  0.20290387  0.82038103  0.13805863    -0.77700
O695        O  0.22928026  0.78475943  0.16707701    -0.65300
Ni696      Ni  0.13765635  0.80406324  0.23327107     1.34900
C697        C  0.22313037  0.76872236  0.18584056     0.85800
O698        O  0.13120581  0.81816342  0.16844836    -0.78300
O699        O  0.11406686  0.79468651  0.20299873    -0.88500
C700        C  0.18672864  0.83977463  0.13190871     0.85400
O701        O  0.12743912  0.84180193  0.23046667    -0.66700
O702        O  0.25922318  0.82461967  0.19228251    -0.86000
C703        C  0.13740426  0.86177247  0.21801860     0.86200
C704        C  0.11332817  0.80270663  0.17828385     1.07800
H705        H  0.20627985  0.85199508  0.19617420     0.39600
O706        O  0.20413375  0.83303394  0.19131384    -1.08700
O707        O  0.21516256  0.77726253  0.20866040    -0.65300
Ni708      Ni  0.20344029  0.81198075  0.22306887     1.26300
O709        O  0.15519991  0.85887792  0.19974683    -0.65600
O710        O  0.24039855  0.82036309  0.23340228    -0.77900
C711        C  0.18066304  0.79810861  0.27127554     0.85600
O712        O  0.19973227  0.79253778  0.25535758    -0.65000
Ni713      Ni  0.23047495  0.82338503  0.16541484     1.27400
Ni714      Ni  0.16745603  0.82661433  0.18003667     1.26100
H715        H  0.16789724  0.78501508  0.20288878     0.40100
N716        N  0.99677240  0.78215013  0.12709427    -0.00500
C717        C  0.01961976  0.77371781  0.11412209    -0.11300
C718        C  0.01370189  0.76206538  0.08840153    -0.06900
C719        C  0.98465328  0.76298191  0.08634317    -0.07500
C720        C  0.97559209  0.77635855  0.11016157    -0.11400
O721        O  0.86572490  0.88117704  0.19670569    -0.79800
O722        O  0.80744390  0.78376145  0.14083381    -0.64500
O723        O  0.82401610  0.84788919  0.17947370    -1.11100
C724        C  0.83623856  0.79306861  0.25383646     1.07100
O725        O  0.79675075  0.75612773  0.17475084    -0.77700
O726        O  0.77789800  0.79924583  0.20366253    -0.65300
Ni727      Ni  0.84602031  0.87479892  0.16312598     1.34900
C728        C  0.77833682  0.82243056  0.21541305     0.85800
O729        O  0.80110620  0.83504801  0.13107465    -0.78300
O730        O  0.82635067  0.87245305  0.12872059    -0.88500
C731        C  0.79818463  0.76191280  0.14988269     0.85400
O732        O  0.87394704  0.84977669  0.15154556    -0.66700
O733        O  0.81382586  0.78509810  0.24424176    -0.86000
C734        C  0.87280636  0.82537836  0.14244297     0.86200
C735        C  0.80718295  0.85727385  0.12001473     1.07800
H736        H  0.84805642  0.78734806  0.18735708     0.39600
O737        O  0.83108318  0.79674329  0.19111770    -1.08700
O738        O  0.80033257  0.83252601  0.22472579    -0.65300
Ni739      Ni  0.83705549  0.82954606  0.21095317     1.26300
O740        O  0.85111237  0.81170649  0.14272436    -0.65600
O741        O  0.85027026  0.81046475  0.24186119    -0.77900
C742        C  0.85485345  0.88241063  0.21994491     0.85600
O743        O  0.84233370  0.86241698  0.22927970    -0.65000
Ni744      Ni  0.80632326  0.77273222  0.20812476     1.27400
Ni745      Ni  0.81641742  0.81560824  0.16009182     1.26100
H746        H  0.80706913  0.85706010  0.18310764     0.40100
N747        N  0.76396328  0.85446089  0.00038020    -0.00500
C748        C  0.75488492  0.87328656  0.01787510    -0.11300
C749        C  0.74070793  0.89373965  0.00424634    -0.06900
C750        C  0.74220097  0.88845288  0.97646040    -0.07500
C751        C  0.75642585  0.86334783  0.97546311    -0.11400
O752        O  0.16435882  0.11751469  0.22525131    -0.79800
O753        O  0.21115427  0.22906735  0.20439815    -0.64500
O754        O  0.16000650  0.17146526  0.21387512    -1.11100
C755        C  0.18893614  0.14982183  0.12372538     1.07100
O756        O  0.18665879  0.23909151  0.16797489    -0.77700
O757        O  0.14999947  0.20899044  0.14299711    -0.65300
Ni758      Ni  0.15988840  0.15016456  0.24587406     1.34900
C759        C  0.13115781  0.19413570  0.15138346     0.85800
O760        O  0.17966615  0.21497162  0.24765857    -0.78300
O761        O  0.15635536  0.18199446  0.26828530    -0.88500
C762        C  0.20551648  0.24506825  0.18460529     0.85400
O763        O  0.19754658  0.14826477  0.25303928    -0.66700
O764        O  0.19131878  0.17575299  0.12174545    -0.86000
C765        C  0.21805987  0.15764293  0.24153671     0.86200
C766        C  0.16681628  0.20570098  0.26807551     1.07800
H767        H  0.20981138  0.17586751  0.17572213     0.39600
O768        O  0.19166729  0.18350698  0.17621675    -1.08700
O769        O  0.13568397  0.17167464  0.16381118    -0.65300
Ni770      Ni  0.16758208  0.15350130  0.17939561     1.26300
O771        O  0.21647438  0.17740041  0.22470017    -0.65600
O772        O  0.17845183  0.13793378  0.14431634    -0.77900
C773        C  0.14614647  0.10984312  0.20879836     0.85600
O774        O  0.14366127  0.12252312  0.18623404    -0.65000
Ni775      Ni  0.18847131  0.20684957  0.14570489     1.27400
Ni776      Ni  0.18617165  0.19976347  0.21133478     1.26100
H777        H  0.14237700  0.18021735  0.21262492     0.40100
N778        N  0.99938156  0.22763357  0.14773640    -0.00500
C779        C  0.97708656  0.23885877  0.13516666    -0.11300
C780        C  0.98399244  0.25524283  0.11304028    -0.06900
C781        C  0.01275775  0.25386269  0.11267601    -0.07500
C782        C  0.02110784  0.23633671  0.13400173    -0.11400
N783        N  0.10805798  0.98898651  0.24081303    -0.00500
C784        C  0.09411207  0.01191026  0.24764204    -0.11300
C785        C  0.07176934  0.00572560  0.26424423    -0.06900
C786        C  0.07194884  0.97538755  0.26587115    -0.07500
C787        C  0.09508566  0.96732931  0.25103760    -0.11400
N788        N  0.24750255  0.13740095  0.00863281    -0.00500
C789        C  0.24691857  0.11777473  0.02772911    -0.11300
C790        C  0.26333161  0.09571201  0.01941825    -0.06900
C791        C  0.27425010  0.10207472  0.99401220    -0.07500
C792        C  0.26390374  0.12819001  0.98869504    -0.11400
N793        N  0.83449085  0.00435423  0.27727460    -0.00500
C794        C  0.84772117  0.02344398  0.29199642    -0.11300
C795        C  0.86896995  0.01132518  0.30690560    -0.06900
C796        C  0.86789707  0.98343981  0.30141246    -0.07500
C797        C  0.84695254  0.98020126  0.28262126    -0.11400
O798        O  0.74705160  0.19484887  0.24547461    -0.79800
O799        O  0.85929381  0.22369693  0.19079895    -0.64500
O800        O  0.78682939  0.20349258  0.20691331    -1.11100
C801        C  0.83296952  0.12137445  0.23261019     1.07100
O802        O  0.86445476  0.18540902  0.16775485    -0.77700
O803        O  0.83435316  0.14050845  0.17029770    -0.65300
Ni804      Ni  0.76868325  0.22503878  0.23351699     1.34900
C805        C  0.80962416  0.14477216  0.16434539     0.85800
O806        O  0.81041756  0.24861223  0.18625707    -0.78300
O807        O  0.78630992  0.25849976  0.22300636    -0.88500
C808        C  0.87248648  0.20918128  0.17396585     0.85400
O809        O  0.79613025  0.21661722  0.26011380    -0.66700
O810        O  0.85368768  0.13077138  0.22107017    -0.86000
C811        C  0.82057319  0.22390782  0.25810452     0.86200
C812        C  0.79618179  0.26502160  0.20024680     1.07800
H813        H  0.84078041  0.18201139  0.23154792     0.39600
O814        O  0.83297860  0.17996602  0.21379336    -1.08700
O815        O  0.79315991  0.15584402  0.18085584    -0.65300
Ni816      Ni  0.79716541  0.16744267  0.21818627     1.26300
O817        O  0.83063289  0.23007995  0.23533205    -0.65600
O818        O  0.80910992  0.13176731  0.23012626    -0.77900
C819        C  0.74322379  0.17038701  0.23728215     0.85600
O820        O  0.76040731  0.15698123  0.22330660    -0.65000
Ni821      Ni  0.85836482  0.15828901  0.19484945     1.27400
Ni822      Ni  0.82288914  0.21456875  0.19966109     1.26100
H823        H  0.77620812  0.20317992  0.19048584     0.40100
N824        N  0.78991492  0.13940499  0.03144094    -0.00500
C825        C  0.78335000  0.12451378  0.00916705    -0.11300
C826        C  0.76536474  0.10380093  0.01603151    -0.06900
C827        C  0.76206048  0.10514536  0.04447073    -0.07500
C828        C  0.77748340  0.12762581  0.05275982    -0.11400
N829        N  0.18156042  0.72849374  0.38584911    -0.00500
C830        C  0.16516434  0.74481854  0.37039062    -0.11300
C831        C  0.13950253  0.74768214  0.38152201    -0.06900
C832        C  0.14159274  0.73249931  0.40524701    -0.07500
C833        C  0.16755962  0.72168435  0.40777596    -0.11400
N834        N  0.16021156  0.76115890  0.65266863    -0.00500
C835        C  0.14521421  0.78154763  0.66401468    -0.11300
C836        C  0.12053289  0.78519361  0.65040939    -0.06900
C837        C  0.12091680  0.76578843  0.62976048    -0.07500
C838        C  0.14555742  0.75166461  0.63152339    -0.11400
N839        N  0.84540032  0.76236299  0.61925577    -0.00500
C840        C  0.85973008  0.78376911  0.62892020    -0.11300
C841        C  0.88239278  0.78754168  0.61341523    -0.06900
C842        C  0.88159122  0.76712678  0.59403677    -0.07500
C843        C  0.85893547  0.75192396  0.59830201    -0.11400
N844        N  0.85540368  0.72682729  0.36681233    -0.00500
C845        C  0.87158487  0.74409366  0.35272140    -0.11300
C846        C  0.89750279  0.74717617  0.36413832    -0.06900
C847        C  0.89588197  0.72985233  0.38743806    -0.07500
C848        C  0.86974110  0.71739362  0.38876817    -0.11400
C849        C  0.82415392  0.63453575  0.46997413     0.31100
C850        C  0.80588235  0.59444830  0.50729343     0.31100
C851        C  0.83516261  0.63587292  0.49917699    -0.05100
C852        C  0.79287714  0.63338696  0.47490739    -0.05900
C853        C  0.83083622  0.60453986  0.46381021    -0.05800
C854        C  0.82542740  0.61667239  0.51849774    -0.05100
C855        C  0.78369264  0.61333169  0.49322719    -0.05900
C856        C  0.82195377  0.58452036  0.48234827    -0.05800
C857        C  0.82574604  0.63074345  0.54303848    -0.31200
N858        N  0.83624618  0.65591347  0.53918726     0.15300
C859        C  0.84236380  0.65876964  0.51288334    -0.31200
H860        H  0.84818999  0.67778574  0.50361417     0.17300
C861        C  0.75640991  0.61958384  0.49742237    -0.30200
N862        N  0.74891893  0.64270212  0.48365396     0.14100
C863        C  0.77070932  0.65040195  0.46911576    -0.30100
C864        C  0.81995193  0.56077133  0.46768506    -0.30400
N865        N  0.82745209  0.56535576  0.44191633     0.14600
H866        H  0.80888656  0.54293016  0.47372656     0.17200
C867        C  0.83361338  0.59187349  0.43922340    -0.30400
H868        H  0.83497903  0.60215481  0.41989726     0.17200
H869        H  0.77034970  0.66747326  0.45542103     0.17200
H870        H  0.81598984  0.62445214  0.56141584     0.17300
H871        H  0.74299818  0.60884107  0.51046682     0.17200
C872        C  0.01341999  0.87107671  0.29852347     0.31100
C873        C  0.97857349  0.82820519  0.31453624     0.31100
C874        C  0.98728389  0.87898717  0.31307541    -0.05100
C875        C  0.00234310  0.85181748  0.27562644    -0.05900
C876        C  0.02565145  0.84915993  0.31863937    -0.05800
C877        C  0.96951204  0.85820069  0.32050167    -0.05100
C878        C  0.98520191  0.83023850  0.28317309    -0.05900
C879        C  0.00798092  0.82806354  0.32664706    -0.05800
C880        C  0.94464825  0.87127389  0.32444108    -0.31200
N881        N  0.94752778  0.89871888  0.32098887     0.15300
C882        C  0.97345890  0.90341923  0.31451699    -0.31200
H883        H  0.98078679  0.92304879  0.30805656     0.17300
C884        C  0.98086489  0.81530453  0.25912063    -0.30200
N885        N  0.99410221  0.82667196  0.23771779     0.14100
C886        C  0.00724682  0.84892928  0.24813841    -0.30100
C887        C  0.02378492  0.80821101  0.33954759    -0.30400
N888        N  0.05011569  0.81588198  0.33988545     0.14600
H889        H  0.01679884  0.78869982  0.34670500     0.17200
C890        C  0.05160163  0.84029375  0.32663412    -0.30400
H891        H  0.07038353  0.85008186  0.32182122     0.17200
H892        H  0.02006194  0.86238817  0.23712158     0.17200
H893        H  0.92543460  0.86128992  0.32671979     0.17300
H894        H  0.96966328  0.79672987  0.25746022     0.17200
C895        C  0.99281520  0.89008631  0.71234308     0.31100
C896        C  0.03404303  0.85973976  0.68930722     0.31100
C897        C  0.02051948  0.90332483  0.71194583    -0.05100
C898        C  0.99889972  0.86197774  0.72496211    -0.05900
C899        C  0.98810651  0.88231313  0.68232169    -0.05800
C900        C  0.04180570  0.88816642  0.70113375    -0.05100
C901        C  0.02022089  0.84702474  0.71389269    -0.05900
C902        C  0.00930280  0.86649923  0.67041093    -0.05800
C903        C  0.06493468  0.90273815  0.70783940    -0.31200
N904        N  0.05782163  0.92695524  0.72012179     0.15300
C905        C  0.03051675  0.92706378  0.72263640    -0.31200
H906        H  0.01837264  0.94295637  0.73199778     0.17300
C907        C  0.02205261  0.82278722  0.72783939    -0.30200
N908        N  0.00159987  0.82190796  0.74579730     0.14100
C909        C  0.98719976  0.84576061  0.74409739    -0.30100
C910        C  0.99686302  0.84940147  0.65163767    -0.30400
N911        N  0.96970796  0.85386622  0.65159881     0.14600
H912        H  0.00683373  0.83280843  0.64094944     0.17200
C913        C  0.96433529  0.87338759  0.67038519    -0.30400
H914        H  0.94425986  0.87774208  0.67791896     0.17200
H915        H  0.96910544  0.85069718  0.75527423     0.17200
H916        H  0.08540981  0.89520943  0.70559117     0.17300
H917        H  0.03721763  0.80681795  0.72527659     0.17200
C918        C  0.21696856  0.65405326  0.49356739     0.31100
C919        C  0.23255235  0.61604225  0.53173461     0.31100
C920        C  0.21856571  0.62452526  0.48399169    -0.05100
C921        C  0.24576127  0.65786054  0.50640720    -0.05900
C922        C  0.19895769  0.65236353  0.51848830    -0.05800
C923        C  0.22566885  0.60510691  0.50310403    -0.05100
C924        C  0.25335506  0.63833206  0.52597079    -0.05900
C925        C  0.20719871  0.63372339  0.53888216    -0.05800
C926        C  0.22858437  0.58060513  0.48926311    -0.31200
N927        N  0.22424018  0.58509683  0.46223272     0.15300
C928        C  0.21862240  0.61216146  0.45904603    -0.31200
H929        H  0.21686155  0.62285773  0.43996479     0.17300
C930        C  0.27939976  0.64377251  0.53463093    -0.30200
N931        N  0.28831063  0.66566403  0.52077380     0.14100
C932        C  0.26821830  0.67423956  0.50342954    -0.30100
C933        C  0.19970480  0.64651401  0.56306613    -0.30400
N934        N  0.18567932  0.67011581  0.55770363     0.14600
H935        H  0.20699715  0.64090138  0.58311679     0.17200
C936        C  0.18545406  0.67369983  0.53061304    -0.30400
H937        H  0.17859536  0.69211571  0.52033192     0.17200
H938        H  0.27076497  0.69051909  0.48909270     0.17200
H939        H  0.23473918  0.56129619  0.49821863     0.17300
H940        H  0.29102895  0.63261566  0.54987985     0.17200
N941        N  0.36895484  0.27831152  0.49492647    -0.00500
C942        C  0.37982976  0.26492003  0.51669872    -0.11300
C943        C  0.40053312  0.24662627  0.50803599    -0.06900
C944        C  0.40116584  0.24900540  0.47968347    -0.07500
C945        C  0.38209479  0.26894863  0.47279782    -0.11400
N946        N  0.27621742  0.49876132  0.33877319    -0.00500
C947        C  0.27003476  0.52099973  0.35398447    -0.11300
C948        C  0.25086179  0.51451639  0.37295237    -0.06900
C949        C  0.24616616  0.48696248  0.36965598    -0.07500
C950        C  0.26301925  0.47766495  0.34937513    -0.11400
N951        N  0.50035580  0.32532882  0.26377940    -0.00500
C952        C  0.52562513  0.33376791  0.25868045    -0.11300
C953        C  0.52508135  0.35168552  0.23690423    -0.06900
C954        C  0.49822128  0.35408298  0.22880523    -0.07500
C955        C  0.48359277  0.33835885  0.24625033    -0.11400
O956        O  0.28287985  0.27537625  0.35883661    -0.79800
O957        O  0.36853500  0.34022699  0.30432402    -0.64500
O958        O  0.30054613  0.31302273  0.32558419    -1.11100
C959        C  0.33625021  0.23069182  0.28925938     1.07100
O960        O  0.35944317  0.31953390  0.26583784    -0.77700
O961        O  0.32797965  0.27778277  0.25177340    -0.65300
Ni962      Ni  0.28794104  0.31376987  0.36097525     1.34900
C963        C  0.30722792  0.29284880  0.25417545     0.85800
O964        O  0.32357694  0.36271950  0.32933652    -0.78300
O965        O  0.29328677  0.35227245  0.36213062    -0.88500
C966        C  0.37469627  0.33476636  0.27983440     0.85400
O967        O  0.32082509  0.30642158  0.37907545    -0.66700
O968        O  0.35748160  0.24379824  0.28318017    -0.86000
C969        C  0.34526173  0.31027252  0.37361020     0.86200
C970        C  0.30559038  0.36904150  0.34693592     1.07800
H971        H  0.35308134  0.28104717  0.32146836     0.39600
O972        O  0.34229264  0.28976241  0.30729424    -1.08700
O973        O  0.29499767  0.29403194  0.27653371    -0.65300
Ni974      Ni  0.30643157  0.27770876  0.31053420     1.26300
O975        O  0.35312545  0.32036708  0.35152867    -0.65600
O976        O  0.31373308  0.24235900  0.29513116    -0.77900
C977        C  0.26468537  0.26836244  0.34207198     0.85600
O978        O  0.27014530  0.26748959  0.31707419    -0.65000
Ni979      Ni  0.35919019  0.28161718  0.27436440     1.27400
Ni980      Ni  0.33463591  0.32708096  0.31732393     1.26100
H981        H  0.28707356  0.32280067  0.31482721     0.40100
O982        O  0.69602766  0.25584223  0.28733051    -0.79800
O983        O  0.72161433  0.36416710  0.35025625    -0.64500
O984        O  0.71140066  0.29203772  0.32835598    -1.11100
C985        C  0.62097636  0.32421293  0.32474929     1.07100
O986        O  0.69022772  0.35972408  0.38163793    -0.77700
O987        O  0.64933365  0.32387150  0.38134853    -0.65300
Ni988      Ni  0.72750414  0.27742446  0.29688870     1.34900
C989        C  0.65957441  0.30010613  0.38420229     0.85800
O990        O  0.75508208  0.32105069  0.34310617    -0.78300
O991        O  0.76091120  0.29613933  0.30525938    -0.88500
C992        C  0.71276631  0.36874616  0.37392528     0.85400
O993        O  0.71472022  0.30644374  0.27397920    -0.66700
O994        O  0.62857822  0.34671018  0.33552036    -0.86000
C995        C  0.71938245  0.33181958  0.27686542     0.86200
C996        C  0.76934586  0.30555592  0.32808365     1.07800
H997        H  0.67693308  0.34290856  0.31442860     0.39600
O998        O  0.68030283  0.33404465  0.33164544    -1.08700
O999        O  0.67351626  0.28897392  0.36574130    -0.65300
Ni1000     Ni  0.67353781  0.29682859  0.32744399     1.26300
O1001       O  0.72448909  0.34223901  0.30030437    -0.65600
O1002       O  0.63508673  0.30212691  0.32548066    -0.77900
C1003       C  0.67783371  0.24691524  0.30293432     0.85600
O1004       O  0.66899204  0.25994374  0.32298213    -0.65000
Ni1005     Ni  0.65960044  0.35304064  0.35807626     1.27400
Ni1006     Ni  0.71782233  0.32874150  0.33716374     1.26100
H1007       H  0.71697566  0.28066689  0.34352847     0.40100
O1008       O  0.32265032  0.63353650  0.28205868    -0.79800
O1009       O  0.38290748  0.65171829  0.39719956    -0.64500
O1010       O  0.33289635  0.63819757  0.33789785    -1.11100
C1011       C  0.33666476  0.73485152  0.33588612     1.07100
O1012       O  0.34876959  0.67668034  0.41086565    -0.77700
O1013       O  0.30889105  0.70633540  0.38599387    -0.65300
Ni1014     Ni  0.34643843  0.61706096  0.30830560     1.34900
C1015       C  0.29123532  0.69427257  0.37173891     0.85800
O1016       O  0.36254501  0.60569554  0.37517150    -0.78300
O1017       O  0.36988082  0.59763802  0.33278059    -0.88500
C1018       C  0.37254934  0.66744860  0.41481524     0.85400
O1019       O  0.37218605  0.64481272  0.30340548    -0.66700
O1020       O  0.34580716  0.73451358  0.36028909    -0.86000
C1021       C  0.39309551  0.64379120  0.31851418     0.86200
C1022       C  0.35998447  0.59011248  0.35478853     1.07800
H1023       H  0.37088942  0.68739663  0.34937187     0.39600
O1024       O  0.35464496  0.68110135  0.35770172    -1.08700
O1025       O  0.29712148  0.67781390  0.35269778    -0.65300
Ni1026     Ni  0.32840757  0.67627606  0.33002250     1.26300
O1027       O  0.39125900  0.64208671  0.34433270    -0.65600
O1028       O  0.32573865  0.71465754  0.32351611    -0.77900
C1029       C  0.30510484  0.65279177  0.28213701     0.85600
O1030       O  0.30325056  0.67054611  0.30089889    -0.65000
Ni1031     Ni  0.34717479  0.70590812  0.38598653     1.27400
Ni1032     Ni  0.35931518  0.64379580  0.36714739     1.26100
H1033       H  0.31645383  0.63047276  0.34468057     0.40100
O1034       O  0.39329758  0.35356724  0.67122756    -0.79800
O1035       O  0.27281751  0.31265126  0.64983722    -0.64500
O1036       O  0.33714617  0.34763787  0.67325063    -1.11100
C1037       C  0.34913553  0.26330063  0.71796425     1.07100
O1038       O  0.26536786  0.30584803  0.69348590    -0.77700
O1039       O  0.29950027  0.30287668  0.73600805    -0.65300
Ni1040     Ni  0.36235567  0.35935633  0.64738242     1.34900
C1041       C  0.31187095  0.32492276  0.74107312     0.85800
O1042       O  0.29424577  0.36168220  0.64097446    -0.78300
O1043       O  0.33368457  0.36710465  0.62157218    -0.88500
C1044       C  0.25673910  0.31092877  0.66959378     0.85400
O1045       O  0.36644613  0.32328160  0.63359167    -0.66700
O1046       O  0.32433646  0.25809218  0.71269933    -0.86000
C1047       C  0.34805091  0.31112444  0.62018968     0.86200
C1048       C  0.31033983  0.37613804  0.62773243     1.07800
H1049       H  0.32578809  0.28580380  0.66707047     0.39600
O1050       O  0.31882138  0.29962935  0.67931377    -1.08700
O1051       O  0.32909614  0.33432761  0.72502120    -0.65300
Ni1052     Ni  0.34826262  0.31783323  0.69523244     1.26300
O1053       O  0.32290069  0.31430391  0.62621651    -0.65600
O1054       O  0.35926629  0.28701820  0.71643399    -0.77900
C1055       C  0.39612492  0.34682441  0.69605797     0.85600
O1056       O  0.37748714  0.33654747  0.70949281    -0.65000
Ni1057     Ni  0.29506912  0.28213124  0.70296297     1.27400
Ni1058     Ni  0.30588469  0.32980026  0.65922853     1.26100
H1059       H  0.33167859  0.36321806  0.68423365     0.40100
N1060       N  0.50907028  0.61489606  0.27441259    -0.00500
C1061       C  0.48629679  0.60167632  0.26628336    -0.11300
C1062       C  0.49189717  0.57828767  0.25034452    -0.06900
C1063       C  0.52070970  0.57797510  0.24978619    -0.07500
C1064       C  0.53033088  0.60089216  0.26433435    -0.11400
N1065       N  0.64895353  0.70465914  0.49616097    -0.00500
C1066       C  0.63863459  0.71798029  0.51786442    -0.11300
C1067       C  0.61618805  0.73448416  0.50969204    -0.06900
C1068       C  0.61269581  0.73059273  0.48112058    -0.07500
C1069       C  0.63296634  0.71162509  0.47464447    -0.11400
N1070       N  0.74564826  0.47594682  0.34447076    -0.00500
C1071       C  0.75814560  0.49995009  0.34758109    -0.11300
C1072       C  0.78137124  0.49667700  0.36353406    -0.06900
C1073       C  0.78344686  0.46937196  0.37048707    -0.07500
C1074       C  0.76075465  0.45743885  0.35872910    -0.11400
O1075       O  0.69572559  0.68553983  0.36936073    -0.79800
O1076       O  0.72020013  0.69310334  0.25602567    -0.64500
O1077       O  0.68057065  0.69275380  0.31984981    -1.11100
C1078       C  0.70418484  0.59830940  0.31187895     1.07100
O1079       O  0.68811875  0.66484837  0.24260372    -0.77700
O1080       O  0.65980841  0.62684050  0.26851996    -0.65300
Ni1081     Ni  0.68936949  0.71723326  0.34819445     1.34900
C1082       C  0.64275618  0.63380075  0.28622870     0.85800
O1083       O  0.69766754  0.73320417  0.28487818    -0.78300
O1084       O  0.68365998  0.74890325  0.32537053    -0.88500
C1085       C  0.70591514  0.68241816  0.23738378     0.85400
O1086       O  0.72750605  0.72062328  0.34570417    -0.66700
O1087       O  0.70688556  0.60312610  0.28656142    -0.86000
C1088       C  0.74474412  0.71078001  0.32957546     0.86200
C1089       C  0.68881815  0.75238404  0.30022186     1.07800
H1090       H  0.72427131  0.65176533  0.29936351     0.39600
O1091       O  0.70564858  0.65603702  0.29424603    -1.08700
O1092       O  0.64985802  0.64632580  0.30803654    -0.65300
Ni1093     Ni  0.68502900  0.65356142  0.32562318     1.26300
O1094       O  0.73765683  0.69863186  0.30759686    -0.65600
O1095       O  0.69260294  0.61467832  0.32887353    -0.77900
C1096       C  0.67475341  0.67282944  0.37558014     0.85600
O1097       O  0.66608071  0.65456360  0.35937012    -0.65000
Ni1098     Ni  0.69741745  0.63376349  0.26443414     1.27400
Ni1099     Ni  0.70224663  0.69438903  0.28917863     1.26100
H1100       H  0.66201118  0.69661206  0.31425562     0.40100
N1101       N  0.65774535  0.26118307  0.50973585    -0.00500
C1102       C  0.64371631  0.25610993  0.53240507    -0.11300
C1103       C  0.62000694  0.24235510  0.52702138    -0.06900
C1104       C  0.61988756  0.23897861  0.49907959    -0.07500
C1105       C  0.64294966  0.25119766  0.48887501    -0.11400
N1106       N  0.74520039  0.48675438  0.62392002    -0.00500
C1107       C  0.75281030  0.50836292  0.60853585    -0.11300
C1108       C  0.76739698  0.50119660  0.58435565    -0.06900
C1109       C  0.76850263  0.47123279  0.58645852    -0.07500
C1110       C  0.75405496  0.46432761  0.61039965    -0.11400
N1111       N  0.52069501  0.33919154  0.74112084    -0.00500
C1112       C  0.49795383  0.35040461  0.75097398    -0.11300
C1113       C  0.50367960  0.36899449  0.77151278    -0.06900
C1114       C  0.53170853  0.36823189  0.77444839    -0.07500
C1115       C  0.54129959  0.35051262  0.75468270    -0.11400
O1116       O  0.64931076  0.30105464  0.70820920    -0.79800
O1117       O  0.76256054  0.28581722  0.71348097    -0.64500
O1118       O  0.69559410  0.32255854  0.71656491    -1.11100
C1119       C  0.69485738  0.30133061  0.62380781     1.07100
O1120       O  0.77256334  0.31445007  0.68103781    -0.77700
O1121       O  0.74015898  0.34338012  0.64785354    -0.65300
Ni1122     Ni  0.66932064  0.30958670  0.73985371     1.34900
C1123       C  0.72328662  0.36104898  0.65622598     0.85800
O1124       O  0.73376468  0.30799074  0.75404710    -0.78300
O1125       O  0.69201589  0.31797156  0.77017053    -0.88500
C1126       C  0.77970714  0.29621070  0.69798356     0.85400
O1127       O  0.67695563  0.27178106  0.74412589    -0.66700
O1128       O  0.72043267  0.29707651  0.62594277    -0.86000
C1129       C  0.69485003  0.25604125  0.73456115     0.86200
C1130       C  0.71786572  0.31639615  0.77266378     1.07800
H1131       H  0.71481142  0.27990283  0.67552534     0.39600
O1132       O  0.71977139  0.29868968  0.67874025    -1.08700
O1133       O  0.70272721  0.35497350  0.67049635    -0.65300
Ni1134     Ni  0.68695456  0.31927763  0.67878838     1.26300
O1135       O  0.71498253  0.26549619  0.72205991    -0.65600
O1136       O  0.68016524  0.31346830  0.64136040    -0.77900
C1137       C  0.63811188  0.32258402  0.69967109     0.85600
O1138       O  0.65155926  0.33666123  0.68307571    -0.65000
Ni1139     Ni  0.74642397  0.30566537  0.65342456     1.27400
Ni1140     Ni  0.72814713  0.30264555  0.71622822     1.26100
H1141       H  0.69916291  0.34144581  0.72093770     0.40100
N1142       N  0.29653020  0.51066411  0.63677522    -0.00500
C1143       C  0.28636465  0.53377567  0.62531415    -0.11300
C1144       C  0.27109054  0.52679869  0.60152305    -0.06900
C1145       C  0.27203009  0.49769935  0.59800702    -0.07500
C1146       C  0.28791203  0.48957139  0.62063452    -0.11400
N1147       N  0.52191422  0.60527608  0.73509134    -0.00500
C1148       C  0.49950762  0.59469091  0.74567299    -0.11300
C1149       C  0.50657752  0.57360116  0.76475494    -0.06900
C1150       C  0.53665874  0.56972073  0.76268763    -0.07500
C1151       C  0.54357924  0.59098338  0.74498793    -0.11400
N1152       N  0.39182717  0.71599590  0.53028037    -0.00500
C1153       C  0.41010210  0.71751736  0.51056171    -0.11300
C1154       C  0.43056354  0.73556316  0.51776977    -0.06900
C1155       C  0.42503100  0.74455101  0.54404671    -0.07500
C1156       C  0.40104021  0.73197008  0.55054851    -0.11400
O1157       O  0.29689409  0.65383162  0.75603826    -0.79800
O1158       O  0.37220835  0.68615816  0.66516052    -0.64500
O1159       O  0.33901256  0.67835878  0.73244569    -1.11100
C1160       C  0.27014137  0.73239007  0.68562592     1.07100
O1161       O  0.36472406  0.72950421  0.67369582    -0.77700
O1162       O  0.32691151  0.76031017  0.69849810    -0.65300
Ni1163     Ni  0.33312510  0.64267924  0.74639305     1.34900
C1164       C  0.33026939  0.75789026  0.72385148     0.85800
O1165       O  0.38758541  0.66040776  0.71040522    -0.78300
O1166       O  0.37006088  0.62954160  0.73842368    -0.88500
C1167       C  0.37498567  0.71102816  0.65892120     0.85400
O1168       O  0.31804549  0.62589657  0.71428146    -0.66700
O1169       O  0.28814441  0.73633388  0.66778765    -0.86000
C1170       C  0.32449789  0.62760076  0.68953830     0.86200
C1171       C  0.39009440  0.63961585  0.72577613     1.07800
H1172       H  0.31200506  0.68815327  0.67681171     0.39600
O1173       O  0.32312414  0.69971852  0.68821204    -1.08700
O1174       O  0.32689926  0.73469341  0.73541076    -0.65300
Ni1175     Ni  0.30784005  0.70120094  0.72252782     1.26300
O1176       O  0.34059294  0.64617605  0.68160701    -0.65600
O1177       O  0.27585879  0.72233788  0.70936703    -0.77900
C1178       C  0.29114262  0.67582176  0.76889435     0.85600
O1179       O  0.29383865  0.69906949  0.75794651    -0.65000
Ni1180     Ni  0.32656309  0.73329090  0.67021257     1.27400
Ni1181     Ni  0.35561234  0.67979219  0.69843354     1.26100
H1182       H  0.35015050  0.68806227  0.74547039     0.40100
O1183       O  0.63544190  0.65317551  0.68398896    -0.79800
O1184       O  0.74614147  0.68427473  0.64639663    -0.64500
O1185       O  0.69003247  0.64811254  0.68272804    -1.11100
C1186       C  0.68626429  0.73219471  0.73069210     1.07100
O1187       O  0.76263164  0.69288614  0.68681444    -0.77700
O1188       O  0.74034015  0.69355903  0.73531779    -0.65300
Ni1189     Ni  0.66070654  0.63284248  0.66298043     1.34900
C1190       C  0.72812357  0.67318592  0.74454904     0.85800
O1191       O  0.72575104  0.63333495  0.64300266    -0.78300
O1192       O  0.68556919  0.61172175  0.64206325    -0.88500
C1193       C  0.76437522  0.69462911  0.66139413     0.85400
O1194       O  0.65590852  0.65876844  0.63444705    -0.66700
O1195       O  0.70945149  0.73738990  0.72112481    -0.86000
C1196       C  0.67165256  0.67558315  0.62368102     0.86200
C1197       C  0.71081635  0.61301215  0.63699119     1.07800
H1198       H  0.69808100  0.70966520  0.67409541     0.39600
O1199       O  0.70765090  0.69634324  0.68527980    -1.08700
O1200       O  0.70646773  0.66391629  0.73377234    -0.65300
Ni1201     Ni  0.68159038  0.67813871  0.70610414     1.26300
O1202       O  0.69534747  0.67976956  0.63324705    -0.65600
O1203       O  0.67428241  0.70933993  0.72812166    -0.77900
C1204       C  0.63513099  0.64869960  0.70925017     0.85600
O1205       O  0.65402512  0.65824094  0.72409758    -0.65000
Ni1206     Ni  0.73581167  0.71512869  0.70365537     1.27400
Ni1207     Ni  0.71743295  0.66557587  0.66322486     1.26100
H1208       H  0.69837047  0.63362300  0.69328915     0.40100
O1209       O  0.02300950  0.27964677  0.54979775    -0.73400
O1210       O  0.97623405  0.26008736  0.49222761    -0.73400
O1211       O  0.97390163  0.25792696  0.54665391    -0.73400
O1212       O  0.02615378  0.28086605  0.49528466    -0.73500
O1213       O  0.04450631  0.23876822  0.49644207    -0.73400
O1214       O  0.99177175  0.21557943  0.54574998    -0.73400
O1215       O  0.99442333  0.21785703  0.49095309    -0.73400
O1216       O  0.04061852  0.23733185  0.55069539    -0.73400
Ni1217     Ni  0.99913613  0.27114390  0.52090544     1.25400
Ni1218     Ni  0.01846746  0.22582486  0.52080209     1.25400
C1219       C  0.03877092  0.26164199  0.56046384     0.88800
C1220       C  0.97768695  0.23612020  0.48205411     0.88800
C1221       C  0.97513228  0.23321677  0.55527440     0.88800
C1222       C  0.04426334  0.26339593  0.48793326     0.89000
O1223       O  0.98495610  0.76492407  0.51833605    -0.73400
O1224       O  0.04541845  0.74868180  0.47563629    -0.73400
O1225       O  0.99175838  0.74923046  0.46710835    -0.73400
O1226       O  0.03848901  0.76449186  0.52687320    -0.73500
O1227       O  0.03796680  0.72056348  0.53880743    -0.73400
O1228       O  0.98949694  0.70544982  0.47983357    -0.73400
O1229       O  0.04386414  0.70441434  0.48694500    -0.73400
O1230       O  0.98412973  0.72125060  0.53132567    -0.73400
Ni1231     Ni  0.01527048  0.75836610  0.49646462     1.25400
Ni1232     Ni  0.01388324  0.71124976  0.50965111     1.25400
C1233       C  0.97444835  0.74566662  0.53170815     0.88800
C1234       C  0.05466985  0.72419730  0.47459789     0.88800
C1235       C  0.98219463  0.72524093  0.46437047     0.88800
C1236       C  0.04581988  0.74514252  0.54284094     0.89000
O1237       O  0.77325143  0.53900419  0.03813725    -0.73400
O1238       O  0.80354244  0.48590129  0.99080714    -0.73400
O1239       O  0.79323834  0.54000146  0.98798336    -0.73400
O1240       O  0.78372133  0.48556653  0.04154602    -0.73500
O1241       O  0.74198286  0.47769194  0.02582670    -0.73400
O1242       O  0.75204144  0.53140985  0.97073094    -0.73400
O1243       O  0.76156088  0.47789832  0.97511739    -0.73400
O1244       O  0.73191660  0.53115172  0.02060465    -0.73400
Ni1245     Ni  0.78999472  0.51287721  0.01524326     1.25400
Ni1246     Ni  0.74541035  0.50413325  0.99743351     1.25400
C1247       C  0.74777957  0.54385549  0.03660477     0.88800
C1248       C  0.78701554  0.47341213  0.97509964     0.88800
C1249       C  0.77426458  0.54454664  0.97057177     0.88800
C1250       C  0.76108015  0.47345481  0.04335945     0.89000
O1251       O  0.49399861  0.98298483  0.77860076    -0.73400
O1252       O  0.56254461  0.01567194  0.77346572    -0.73400
O1253       O  0.51144973  0.03364418  0.77209528    -0.73400
O1254       O  0.54446342  0.96447335  0.77900913    -0.73500
O1255       O  0.54419664  0.96020060  0.73385945    -0.73400
O1256       O  0.50850218  0.02830377  0.72714410    -0.73400
O1257       O  0.56118459  0.01275544  0.72841327    -0.73400
O1258       O  0.49228958  0.97635055  0.73388500    -0.73400
Ni1259     Ni  0.52835326  0.99946065  0.77730602     1.25400
Ni1260     Ni  0.52665427  0.99425961  0.72906717     1.25400
C1261       C  0.48207209  0.97339676  0.75753281     0.88800
C1262       C  0.57292085  0.02070958  0.75054109     0.88800
C1263       C  0.50347775  0.04177639  0.74870612     0.88800
C1264       C  0.54807316  0.95035412  0.75750071     0.89000
O1265       O  0.27909621  0.53646250  0.99361740    -0.73400
O1266       O  0.28164919  0.47491174  0.03998296    -0.73400
O1267       O  0.28399353  0.48160532  0.98601006    -0.73400
O1268       O  0.27629640  0.52968044  0.04747866    -0.73500
O1269       O  0.23145298  0.52671841  0.04371806    -0.73400
O1270       O  0.23905889  0.47855874  0.98240077    -0.73400
O1271       O  0.23663262  0.47193352  0.03701512    -0.73400
O1272       O  0.23417612  0.53322372  0.98963007    -0.73400
Ni1273     Ni  0.28185704  0.50573088  0.01686445     1.25400
Ni1274     Ni  0.23371322  0.50241288  0.01305496     1.25400
C1275       C  0.25625399  0.54531739  0.98447783     0.88800
C1276       C  0.25961272  0.46349627  0.04635322     0.88800
C1277       C  0.26278569  0.47227812  0.97402246     0.88800
C1278       C  0.25253028  0.53648038  0.05554627     0.89000
O1279       O  0.51652445  0.02244945  0.28178351    -0.73400
O1280       O  0.48528582  0.95311197  0.28068066    -0.73400
O1281       O  0.53584800  0.97102878  0.27753878    -0.73400
O1282       O  0.46573728  0.00448922  0.28446780    -0.73500
O1283       O  0.46179433  0.00695477  0.23943317    -0.73400
O1284       O  0.53097217  0.97243480  0.23240084    -0.73400
O1285       O  0.48024252  0.95479788  0.23569886    -0.73400
O1286       O  0.51301103  0.02474897  0.23651479    -0.73400
Ni1287     Ni  0.50093789  0.98779096  0.28272066     1.25400
Ni1288     Ni  0.49628891  0.98992960  0.23433934     1.25400
C1289       C  0.52094578  0.03432909  0.25942524     0.88800
C1290       C  0.47784898  0.94228421  0.25825049     0.88800
C1291       C  0.54439783  0.96544674  0.25373812     0.88800
C1292       C  0.45221138  0.01122704  0.26305553     0.89000
C1293       C  0.38281824  0.74810828  0.59376018    -0.20200
C1294       C  0.39385670  0.72702950  0.57818166    -0.08300
C1295       C  0.40124654  0.70182997  0.58960840     0.30600
C1296       C  0.39674237  0.69735850  0.61671696    -0.20200
C1297       C  0.38469055  0.71799449  0.63240243    -0.08300
C1298       C  0.37832509  0.74376766  0.62100152     0.30600
F1299       F  0.36669054  0.76427551  0.63567163    -0.18800
H1300       H  0.37768746  0.76774814  0.58478763     0.18900
H1301       H  0.40192438  0.67751254  0.62521875     0.19000
F1302       F  0.41312267  0.68177496  0.57453236    -0.18800
C1303       C  0.46545793  0.63395002  0.74242497    -0.20200
C1304       C  0.47153565  0.60596894  0.73816802    -0.08300
C1305       C  0.45045097  0.58911645  0.72845130     0.30600
C1306       C  0.42382638  0.59974456  0.72491609    -0.20200
C1307       C  0.41793984  0.62763720  0.72973764    -0.08300
C1308       C  0.43927717  0.64468378  0.73795967     0.30600
F1309       F  0.43453641  0.67168666  0.74292941    -0.18800
H1310       H  0.48075809  0.64744224  0.75055448     0.18900
H1311       H  0.40786590  0.58625214  0.71815393     0.19000
F1312       F  0.45539834  0.56218423  0.72341073    -0.18800
C1313       C  0.58701150  0.61358667  0.75667439    -0.20200
C1314       C  0.57121270  0.59887020  0.73788896    -0.08300
C1315       C  0.57829841  0.59836878  0.71053135     0.30600
C1316       C  0.59951171  0.61419763  0.70169828    -0.20200
C1317       C  0.61417071  0.63072177  0.72001647    -0.08300
C1318       C  0.60847584  0.62946397  0.74783959     0.30600
F1319       F  0.62237407  0.64485675  0.76617249    -0.18800
H1320       H  0.58133575  0.61454702  0.77778385     0.18900
H1321       H  0.60390090  0.61412788  0.68024754     0.19000
F1322       F  0.56327416  0.58423470  0.69203994    -0.18800
C1323       C  0.28816038  0.59361769  0.67576619    -0.20200
C1324       C  0.31276679  0.60654632  0.66987431    -0.08300
C1325       C  0.32647596  0.59734282  0.64650159     0.30600
C1326       C  0.31657045  0.57517279  0.63067672    -0.20200
C1327       C  0.29247267  0.56177778  0.63720674    -0.08300
C1328       C  0.27813924  0.57178396  0.65975907     0.30600
F1329       F  0.25508810  0.55939824  0.66730802    -0.18800
H1330       H  0.27686850  0.59996683  0.69341534     0.18900
H1331       H  0.32857955  0.56746988  0.61403982     0.19000
F1332       F  0.35046750  0.60843232  0.63994855    -0.18800
C1333       C  0.58475905  0.32669450  0.75343242    -0.20200
C1334       C  0.56890651  0.34861811  0.74463206    -0.08300
C1335       C  0.57649444  0.36377995  0.72184682     0.30600
C1336       C  0.59950378  0.35601582  0.70726000    -0.20200
C1337       C  0.61459919  0.33277762  0.71510564    -0.08300
C1338       C  0.60721237  0.31858961  0.73891208     0.30600
F1339       F  0.62094425  0.29605013  0.74800053    -0.18800
H1340       H  0.57863279  0.31457927  0.77055807     0.18900
H1341       H  0.60479896  0.36734744  0.68935896     0.19000
F1342       F  0.56059975  0.38479645  0.71268081    -0.18800
C1343       C  0.72009541  0.42754982  0.61693600    -0.20200
C1344       C  0.74690597  0.43662131  0.62010335    -0.08300
C1345       C  0.76450090  0.42236115  0.63780379     0.30600
C1346       C  0.75580270  0.39889773  0.65114138    -0.20200
C1347       C  0.72912455  0.38945801  0.64775453    -0.08300
C1348       C  0.71123315  0.40417564  0.63056291     0.30600
F1349       F  0.68567731  0.39526224  0.62595584    -0.18800
H1350       H  0.70589967  0.43886558  0.60410474     0.18900
H1351       H  0.77017969  0.38761204  0.66381624     0.19000
F1352       F  0.78993526  0.43149291  0.64264518    -0.18800
C1353       C  0.76043570  0.55515133  0.62612379    -0.20200
C1354       C  0.74299960  0.53566032  0.61506532    -0.08300
C1355       C  0.71606218  0.54252172  0.60855410     0.30600
C1356       C  0.70645741  0.56879966  0.61342646    -0.20200
C1357       C  0.72333914  0.58828277  0.62568201    -0.08300
C1358       C  0.75067252  0.58149983  0.63152739     0.30600
F1359       F  0.76742384  0.59961009  0.64395330    -0.18800
H1360       H  0.78135907  0.54980952  0.63083669     0.18900
H1361       H  0.68547076  0.57363265  0.60845609     0.19000
F1362       F  0.69961228  0.52422540  0.59600631    -0.18800
C1363       C  0.67531436  0.25160119  0.57000666    -0.20200
C1364       C  0.65286486  0.26509432  0.55864226    -0.08300
C1365       C  0.64388305  0.29044931  0.56859924     0.30600
C1366       C  0.65777726  0.30249815  0.59001392    -0.20200
C1367       C  0.68105047  0.28956586  0.60071558    -0.08300
C1368       C  0.68959215  0.26383849  0.59094804     0.30600
F1369       F  0.71153085  0.25046432  0.60174066    -0.18800
H1370       H  0.68255832  0.23231407  0.56165000     0.18900
H1371       H  0.65097012  0.32224189  0.59763663     0.19000
F1372       F  0.62322892  0.30445575  0.55625691    -0.18800
C1373       C  0.71934520  0.53293231  0.34976158    -0.20200
C1374       C  0.74513950  0.52612838  0.33986332    -0.08300
C1375       C  0.75737912  0.54330132  0.32137542     0.30600
C1376       C  0.74360246  0.56671543  0.31237428    -0.20200
C1377       C  0.71755743  0.57329947  0.32186086    -0.08300
C1378       C  0.70549566  0.55633518  0.34075753     0.30600
F1379       F  0.68011471  0.56178784  0.34964881    -0.18800
H1380       H  0.70989905  0.51998350  0.36445882     0.18900
H1381       H  0.75333385  0.57983706  0.29797028     0.19000
F1382       F  0.78216866  0.53696065  0.31143773    -0.18800
C1383       C  0.65167180  0.72023552  0.43040281    -0.20200
C1384       C  0.63854231  0.70233746  0.44726545    -0.08300
C1385       C  0.63369595  0.67527853  0.43905652     0.30600
C1386       C  0.64408534  0.66561861  0.41454578    -0.20200
C1387       C  0.65933542  0.68309219  0.39862162    -0.08300
C1388       C  0.66189464  0.71086594  0.40616817     0.30600
F1389       F  0.67524431  0.72894341  0.39074225    -0.18800
H1390       H  0.65523533  0.74118327  0.43669125     0.18900
H1391       H  0.64154173  0.64437463  0.40880149     0.19000
F1392       F  0.61989021  0.65816510  0.45517115    -0.18800
C1393       C  0.62785130  0.69707543  0.56247769    -0.20200
C1394       C  0.64639029  0.71075252  0.54640624    -0.08300
C1395       C  0.67260297  0.71516042  0.55697167     0.30600
C1396       C  0.68042459  0.70477362  0.58255294    -0.20200
C1397       C  0.66224057  0.68982275  0.59821285    -0.08300
C1398       C  0.63548997  0.68683046  0.58803180     0.30600
F1399       F  0.61673106  0.67328730  0.60232521    -0.18800
H1400       H  0.60755708  0.69340668  0.55476904     0.18900
H1401       H  0.70101642  0.70776576  0.58972438     0.19000
F1402       F  0.69071304  0.72936045  0.54250539    -0.18800
C1403       C  0.56927298  0.61227312  0.29648695    -0.20200
C1404       C  0.55945939  0.60869087  0.26970053    -0.08300
C1405       C  0.57730375  0.61371770  0.24840980     0.30600
C1406       C  0.60405349  0.62207324  0.25393371    -0.20200
C1407       C  0.61367242  0.62629746  0.28081005    -0.08300
C1408       C  0.59574208  0.62131330  0.30203142     0.30600
F1409       F  0.60405082  0.62419916  0.32825426    -0.18800
H1410       H  0.55651222  0.60762782  0.31336005     0.18900
H1411       H  0.61723970  0.62555153  0.23701906     0.19000
F1412       F  0.56872596  0.61122061  0.22221970    -0.18800
C1413       C  0.32424635  0.42279365  0.61646016    -0.20200
C1414       C  0.30342783  0.40482810  0.62292875    -0.08300
C1415       C  0.27779697  0.41538942  0.62994992     0.30600
C1416       C  0.27350522  0.44345596  0.63118821    -0.20200
C1417       C  0.29453237  0.46111652  0.62538333    -0.08300
C1418       C  0.31987657  0.45086009  0.61787212     0.30600
F1419       F  0.33982827  0.46795096  0.61053844    -0.18800
H1420       H  0.34419016  0.41519362  0.61113733     0.18900
H1421       H  0.25354699  0.45151251  0.63589218     0.19000
F1422       F  0.25703987  0.39874480  0.63602047    -0.18800
C1423       C  0.42425549  0.34221658  0.73764261    -0.20200
C1424       C  0.42219650  0.34947440  0.71003239    -0.08300
C1425       C  0.44538791  0.35716648  0.69613942     0.30600
C1426       C  0.47016551  0.35722828  0.70972782    -0.20200
C1427       C  0.47208055  0.34898514  0.73684319    -0.08300
C1428       C  0.44910948  0.34185331  0.75093832     0.30600
F1429       F  0.45080768  0.33450799  0.77744393    -0.18800
H1430       H  0.40671023  0.33631890  0.74896560     0.18900
H1431       H  0.48776780  0.36426079  0.69925523     0.19000
F1432       F  0.44430793  0.36426787  0.66955500    -0.18800
C1433       C  0.40093134  0.66382000  0.45664737    -0.20200
C1434       C  0.38870435  0.67984656  0.43631955    -0.08300
C1435       C  0.38805641  0.70853244  0.43877664     0.30600
C1436       C  0.39642624  0.72084404  0.46275574    -0.20200
C1437       C  0.40618929  0.70471472  0.48406266    -0.08300
C1438       C  0.41001611  0.67635717  0.48055151     0.30600
F1439       F  0.42143424  0.66084388  0.50057708    -0.18800
H1440       H  0.40186024  0.64172917  0.45472035     0.18900
H1441       H  0.39416050  0.74281897  0.46518540     0.19000
F1442       F  0.37788469  0.72455379  0.41852416    -0.18800
C1443       C  0.43440466  0.61525168  0.31816981    -0.20200
C1444       C  0.41851418  0.63581848  0.30567670    -0.08300
C1445       C  0.42369977  0.64320734  0.27873587     0.30600
C1446       C  0.44481118  0.63039884  0.26481940    -0.20200
C1447       C  0.46020392  0.60960267  0.27735170    -0.08300
C1448       C  0.45488480  0.60202616  0.30402680     0.30600
F1449       F  0.47035194  0.58261358  0.31676669    -0.18800
H1450       H  0.43025284  0.60853917  0.33856369     0.18900
H1451       H  0.44964527  0.63714895  0.24460608     0.19000
F1452       F  0.40833472  0.66266926  0.26596038    -0.18800
C1453       C  0.63261164  0.29336277  0.42576178    -0.20200
C1454       C  0.65472658  0.28529890  0.40987249    -0.08300
C1455       C  0.67217461  0.26416334  0.41947831     0.30600
C1456       C  0.66789492  0.25226533  0.44490377    -0.20200
C1457       C  0.64594403  0.26083552  0.46071128    -0.08300
C1458       C  0.62825587  0.28132982  0.45083985     0.30600
F1459       F  0.60751910  0.29079586  0.46617013    -0.18800
H1460       H  0.61880311  0.30946157  0.41897219     0.18900
H1461       H  0.68196820  0.23677178  0.45249485     0.19000
F1462       F  0.69394087  0.25583621  0.40496602    -0.18800
C1463       C  0.71495525  0.41167771  0.39647945    -0.20200
C1464       C  0.72818279  0.38674307  0.39138448    -0.08300
C1465       C  0.75583380  0.38674386  0.38566775     0.30600
C1466       C  0.76563310  0.40935199  0.37244559    -0.20200
C1467       C  0.74961947  0.43322570  0.37080651    -0.08300
C1468       C  0.72572184  0.43527172  0.38578101     0.30600
F1469       F  0.71285220  0.45966607  0.38969729    -0.18800
H1470       H  0.69440327  0.41228815  0.40380911     0.18900
H1471       H  0.78526409  0.40809757  0.36306192     0.19000
F1472       F  0.77021907  0.36284784  0.38491588    -0.18800
C1473       C  0.56943847  0.31101437  0.26941501    -0.20200
C1474       C  0.54880921  0.32924771  0.27690642    -0.08300
C1475       C  0.55120003  0.34464285  0.30090068     0.30600
C1476       C  0.57428974  0.34192442  0.31722285    -0.20200
C1477       C  0.59527056  0.32401520  0.30963143    -0.08300
C1478       C  0.59265939  0.30831851  0.28567799     0.30600
F1479       F  0.61323101  0.29186417  0.27703024    -0.18800
H1480       H  0.56785423  0.29951304  0.25061190     0.18900
H1481       H  0.57615599  0.35442993  0.33535830     0.19000
F1482       F  0.53187653  0.36338766  0.30776400    -0.18800
C1483       C  0.43502797  0.33321365  0.23426891    -0.20200
C1484       C  0.45485273  0.34293394  0.25210720    -0.08300
C1485       C  0.44744765  0.35495807  0.27689432     0.30600
C1486       C  0.42061802  0.35446253  0.28507691    -0.20200
C1487       C  0.40095490  0.34214766  0.26846799    -0.08300
C1488       C  0.40813835  0.33289260  0.24223267     0.30600
F1489       F  0.38967606  0.32169141  0.22493707    -0.18800
H1490       H  0.44059626  0.32440365  0.21489341     0.18900
H1491       H  0.41560778  0.36214416  0.30504994     0.19000
F1492       F  0.46645942  0.36590792  0.29374367    -0.18800
C1493       C  0.29536918  0.55698229  0.33279907    -0.20200
C1494       C  0.28875979  0.54350775  0.35654367    -0.08300
C1495       C  0.30616394  0.54481708  0.37941319     0.30600
C1496       C  0.32944759  0.56003755  0.37858089    -0.20200
C1497       C  0.33695624  0.57202439  0.35433068    -0.08300
C1498       C  0.32015507  0.56955556  0.33103518     0.30600
F1499       F  0.32793715  0.57769437  0.30621903    -0.18800
H1500       H  0.28296154  0.55465412  0.31459216     0.18900
H1501       H  0.34241263  0.56126736  0.39650457     0.19000
F1502       F  0.30290450  0.52867373  0.40120941    -0.18800
C1503       C  0.30155834  0.44501276  0.35401427    -0.20200
C1504       C  0.27390724  0.44969188  0.34793074    -0.08300
C1505       C  0.25688109  0.42771504  0.34278549     0.30600
C1506       C  0.26766007  0.40132156  0.34301495    -0.20200
C1507       C  0.29549384  0.39687484  0.34786514    -0.08300
C1508       C  0.31255181  0.41872786  0.35317592     0.30600
F1509       F  0.33936398  0.41454334  0.35846747    -0.18800
H1510       H  0.31450553  0.46163770  0.36012111     0.18900
H1511       H  0.25437948  0.38427772  0.33897614     0.19000
F1512       F  0.23000013  0.43180602  0.33788118    -0.18800
C1513       C  0.39162685  0.28331218  0.56271463    -0.20200
C1514       C  0.37227765  0.27210755  0.54506180    -0.08300
C1515       C  0.34516911  0.27110806  0.55347014     0.30600
C1516       C  0.33743402  0.28261722  0.57842369    -0.20200
C1517       C  0.35660250  0.29513657  0.59565672    -0.08300
C1518       C  0.38407288  0.29463681  0.58766201     0.30600
F1519       F  0.40371580  0.30634947  0.60320238    -0.18800
H1520       H  0.41253018  0.28448090  0.55659557     0.18900
H1521       H  0.31628377  0.28250050  0.58382162     0.19000
F1522       F  0.32600575  0.25958631  0.53721163    -0.18800
C1523       C  0.37998947  0.30773734  0.44030601    -0.20200
C1524       C  0.37777317  0.27961311  0.44523944    -0.08300
C1525       C  0.37104573  0.26177025  0.42389898     0.30600
C1526       C  0.36495065  0.27220088  0.39835143    -0.20200
C1527       C  0.36450081  0.30051826  0.39405926    -0.08300
C1528       C  0.37317568  0.31826473  0.41475941     0.30600
F1529       F  0.37238156  0.34577202  0.41105927    -0.18800
H1530       H  0.38568037  0.32160238  0.45657682     0.18900
H1531       H  0.35742063  0.25842624  0.38273771     0.19000
F1532       F  0.36773550  0.23465858  0.42833610    -0.18800
C1533       C  0.31657039  0.70665692  0.52528951    -0.20200
C1534       C  0.31452955  0.67803460  0.52393520    -0.08300
C1535       C  0.33840821  0.66192548  0.52563044     0.30600
C1536       C  0.36372808  0.67436793  0.52821533    -0.20200
C1537       C  0.36572879  0.70299207  0.52892047    -0.08300
C1538       C  0.34186653  0.71902561  0.52798987     0.30600
F1539       F  0.34314367  0.74671460  0.52928210    -0.18800
H1540       H  0.29845000  0.71941912  0.52440660     0.18900
H1541       H  0.38175909  0.66164135  0.52979607     0.19000
F1542       F  0.33732814  0.63423849  0.52389096    -0.18800
C1543       C  0.22715787  0.58452048  0.57316018    -0.20200
C1544       C  0.24221911  0.59286261  0.55069368    -0.08300
C1545       C  0.26592220  0.57757602  0.54443475     0.30600
C1546       C  0.27423383  0.55512729  0.56017194    -0.20200
C1547       C  0.25950049  0.54748286  0.58276126    -0.08300
C1548       C  0.23606809  0.56252745  0.58940672     0.30600
F1549       F  0.22187798  0.55600597  0.61172730    -0.18800
H1550       H  0.20824403  0.59449826  0.57813684     0.18900
H1551       H  0.29272004  0.54412938  0.55515849     0.19000
F1552       F  0.28099179  0.58409522  0.52271685    -0.18800
C1553       C  0.24515208  0.54246946  0.44454699    -0.20200
C1554       C  0.22867967  0.56583422  0.44035456    -0.08300
C1555       C  0.21787870  0.57067363  0.41401479     0.30600
C1556       C  0.22551207  0.55402350  0.39226547    -0.20200
C1557       C  0.24270168  0.53143707  0.39647856    -0.08300
C1558       C  0.25157196  0.52508425  0.42303262     0.30600
F1559       F  0.26777599  0.50296683  0.42812433    -0.18800
H1560       H  0.25383425  0.53787440  0.46430446     0.18900
H1561       H  0.21767724  0.55853892  0.37208877     0.19000
F1562       F  0.19956317  0.59110192  0.40913932    -0.18800
C1563       C  0.69938002  0.64532606  0.49409947    -0.20200
C1564       C  0.72358227  0.65834979  0.48695395    -0.08300
C1565       C  0.72258158  0.68724195  0.48443692     0.30600
C1566       C  0.69820205  0.70207639  0.48784909    -0.20200
C1567       C  0.67424196  0.68898794  0.49476902    -0.08300
C1568       C  0.67509058  0.66041840  0.49805106     0.30600
F1569       F  0.65230876  0.64709162  0.50472556    -0.18800
H1570       H  0.69913232  0.62332760  0.49638873     0.18900
H1571       H  0.69797382  0.72406571  0.48520175     0.19000
F1572       F  0.74527281  0.70154284  0.47963012    -0.18800
C1573       C  0.78842570  0.54897861  0.41757925    -0.20200
C1574       C  0.81652499  0.55027257  0.42002012    -0.08300
C1575       C  0.83330748  0.53641203  0.40183073     0.30600
C1576       C  0.82163893  0.52014483  0.38166735    -0.20200
C1577       C  0.79338669  0.51800206  0.38002427    -0.08300
C1578       C  0.77684092  0.53246161  0.39812669     0.30600
F1579       F  0.74981972  0.52831389  0.39910694    -0.18800
H1580       H  0.77558845  0.55972577  0.43186629     0.18900
H1581       H  0.83446620  0.50821306  0.36829933     0.19000
F1582       F  0.86064025  0.53757327  0.40459343    -0.18800
C1583       C  0.76453851  0.54975304  0.56015008    -0.20200
C1584       C  0.77753931  0.52344542  0.56288317    -0.08300
C1585       C  0.80111129  0.52114836  0.54662010     0.30600
C1586       C  0.81018480  0.54332901  0.52952613    -0.20200
C1587       C  0.79704290  0.56985641  0.52776216    -0.08300
C1588       C  0.77494444  0.57238750  0.54551748     0.30600
F1589       F  0.76369477  0.59733807  0.55035775    -0.18800
H1590       H  0.74546741  0.55382800  0.56926685     0.18900
H1591       H  0.82839525  0.53966430  0.51813886     0.19000
F1592       F  0.81597398  0.49758373  0.54737511    -0.18800
C1593       C  0.81974826  0.69645075  0.34730702    -0.20200
C1594       C  0.82733954  0.72145972  0.35938298    -0.08300
C1595       C  0.80797991  0.74282566  0.36029968     0.30600
C1596       C  0.78166218  0.73919104  0.34992356    -0.20200
C1597       C  0.77389605  0.71436117  0.33763832    -0.08300
C1598       C  0.79334039  0.69293309  0.33636390     0.30600
F1599       F  0.78660232  0.66840793  0.32535154    -0.18800
H1600       H  0.83452558  0.67993067  0.34576598     0.18900
H1601       H  0.76719597  0.75601978  0.35141922     0.19000
F1602       F  0.81474000  0.76743936  0.37110256    -0.18800
C1603       C  0.87222740  0.67196329  0.41684112    -0.20200
C1604       C  0.85865830  0.69684973  0.41015482    -0.08300
C1605       C  0.83443329  0.70187778  0.42462982     0.30600
C1606       C  0.82429147  0.68287725  0.44397337    -0.20200
C1607       C  0.83653105  0.65676845  0.44921961    -0.08300
C1608       C  0.86175117  0.65266328  0.43572885     0.30600
F1609       F  0.87708248  0.63001032  0.44107408    -0.18800
H1610       H  0.89124552  0.66717754  0.40716880     0.18900
H1611       H  0.80714856  0.68951823  0.45558396     0.19000
F1612       F  0.82088622  0.72600481  0.42107230    -0.18800
C1613       C  0.93413972  0.78634481  0.36771572    -0.20200
C1614       C  0.92058571  0.76579085  0.35240562    -0.08300
C1615       C  0.92750110  0.76524587  0.32442916     0.30600
C1616       C  0.94555498  0.78443856  0.31255540    -0.20200
C1617       C  0.95870603  0.80553237  0.32749967    -0.08300
C1618       C  0.95251743  0.80544016  0.35580707     0.30600
F1619       F  0.96392737  0.82450788  0.37231229    -0.18800
H1620       H  0.92992985  0.78827046  0.38912022     0.18900
H1621       H  0.94886713  0.78232028  0.29125194     0.19000
F1622       F  0.91688877  0.74564335  0.30802853    -0.18800
C1623       C  0.94434066  0.72123285  0.39836635    -0.20200
C1624       C  0.91782637  0.72584650  0.40728269    -0.08300
C1625       C  0.91270637  0.72788045  0.43514288     0.30600
C1626       C  0.93396604  0.72534102  0.45379096    -0.20200
C1627       C  0.96044878  0.72154694  0.44480403    -0.08300
C1628       C  0.96571853  0.71941257  0.41709795     0.30600
F1629       F  0.99149052  0.71660445  0.40827237    -0.18800
H1630       H  0.94852332  0.71968616  0.37691443     0.18900
H1631       H  0.93001721  0.72804772  0.47521488     0.19000
F1632       F  0.88763905  0.73438749  0.44427482    -0.18800
C1633       C  0.79920853  0.74565785  0.61795285    -0.20200
C1634       C  0.82394213  0.74822773  0.63193527    -0.08300
C1635       C  0.82929625  0.73263946  0.65525997     0.30600
C1636       C  0.80994900  0.71473091  0.66450389    -0.20200
C1637       C  0.78539260  0.71166634  0.65015082    -0.08300
C1638       C  0.78003241  0.72736480  0.62683471     0.30600
F1639       F  0.75608207  0.72554244  0.61305702    -0.18800
H1640       H  0.79528363  0.75722964  0.59959307     0.18900
H1641       H  0.81431399  0.70289152  0.68262267     0.19000
F1642       F  0.85380103  0.73353667  0.66804467    -0.18800
C1643       C  0.83499846  0.72807334  0.56132784    -0.20200
C1644       C  0.85141599  0.72642619  0.58455339    -0.08300
C1645       C  0.85758329  0.70074764  0.59612472     0.30600
C1646       C  0.85067004  0.67683630  0.58217691    -0.20200
C1647       C  0.83637739  0.67862572  0.55749915    -0.08300
C1648       C  0.82686105  0.70430195  0.54824698     0.30600
F1649       F  0.81087924  0.70628845  0.52562838    -0.18800
H1650       H  0.82853564  0.74779077  0.55335698     0.18900
H1651       H  0.85759130  0.65714305  0.58979488     0.19000
F1652       F  0.87066360  0.69882429  0.62048706    -0.18800
C1653       C  0.92440481  0.84943863  0.63053793    -0.20200
C1654       C  0.94921923  0.83726523  0.63875718    -0.08300
C1655       C  0.95241280  0.80861902  0.63651487     0.30600
C1656       C  0.93096458  0.79273989  0.62697297    -0.20200
C1657       C  0.90583464  0.80491712  0.62014356    -0.08300
C1658       C  0.90284541  0.83342841  0.62141724     0.30600
F1659       F  0.87900217  0.84570298  0.61407534    -0.18800
H1660       H  0.92156412  0.87142177  0.63185456     0.18900
H1661       H  0.93344576  0.77069067  0.62662489     0.19000
F1662       F  0.97535441  0.79564725  0.64540582    -0.18800
C1663       C  0.91100299  0.77923613  0.55696530    -0.20200
C1664       C  0.90361603  0.76022706  0.57636515    -0.08300
C1665       C  0.91976178  0.73703288  0.58167295     0.30600
C1666       C  0.94299225  0.73253766  0.56705283    -0.20200
C1667       C  0.95046835  0.75137797  0.54737495    -0.08300
C1668       C  0.93445506  0.77496550  0.54246157     0.30600
F1669       F  0.94128075  0.79377242  0.52371930    -0.18800
H1670       H  0.89889647  0.79764375  0.55357275     0.18900
H1671       H  0.95544341  0.71462227  0.57158831     0.19000
F1672       F  0.91433403  0.71995558  0.60234127    -0.18800
C1673       C  0.20898610  0.75841491  0.64401646    -0.20200
C1674       C  0.18731566  0.75233440  0.66063485    -0.08300
C1675       C  0.19267392  0.73916587  0.68552992     0.30600
C1676       C  0.21949128  0.73304346  0.69392849    -0.20200
C1677       C  0.24146747  0.73963995  0.67748245    -0.08300
C1678       C  0.23563475  0.75220701  0.65210681     0.30600
F1679       F  0.25560728  0.75886717  0.63489657    -0.18800
H1680       H  0.20520718  0.76863285  0.62485773     0.18900
H1681       H  0.22301454  0.72295693  0.71319651     0.19000
F1682       F  0.17194656  0.73217718  0.70162413    -0.18800
C1683       C  0.15592794  0.70288203  0.61993310    -0.20200
C1684       C  0.15552080  0.73055284  0.61254659    -0.08300
C1685       C  0.16608220  0.73826462  0.58766241     0.30600
C1686       C  0.17671705  0.71845140  0.57020686    -0.20200
C1687       C  0.17644651  0.69044306  0.57695730    -0.08300
C1688       C  0.16594560  0.68284982  0.60213549     0.30600
F1689       F  0.16456884  0.65612079  0.60916831    -0.18800
H1690       H  0.14807082  0.69680874  0.63932872     0.18900
H1691       H  0.18533805  0.72518546  0.55142783     0.19000
F1692       F  0.16667424  0.76505161  0.58055411    -0.18800
C1693       C  0.05183059  0.81255175  0.67344224    -0.20200
C1694       C  0.05606714  0.84104248  0.67610731    -0.08300
C1695       C  0.08032522  0.85101153  0.66531111     0.30600
C1696       C  0.10123852  0.83285333  0.65731065    -0.20200
C1697       C  0.09783232  0.80436764  0.65785176    -0.08300
C1698       C  0.07245444  0.79445478  0.66499350     0.30600
F1699       F  0.06782235  0.76714998  0.66463402    -0.18800
H1700       H  0.03248118  0.80400493  0.67835236     0.18900
H1701       H  0.11996025  0.84108533  0.64999826     0.19000
F1702       F  0.08318986  0.87802025  0.66031327    -0.18800
C1703       C  0.07135864  0.73003901  0.58401405    -0.20200
C1704       C  0.06360132  0.75121090  0.56623192    -0.08300
C1705       C  0.07312546  0.77789041  0.57109368     0.30600
C1706       C  0.09110024  0.78274589  0.59258271    -0.20200
C1707       C  0.09970663  0.76121926  0.60934197    -0.08300
C1708       C  0.08916620  0.73502826  0.60552639     0.30600
F1709       F  0.09596198  0.71434430  0.62271632    -0.18800
H1710       H  0.06386030  0.70949772  0.58118303     0.18900
H1711       H  0.09900683  0.80311047  0.59562092     0.19000
F1712       F  0.06563811  0.79917968  0.55489066    -0.18800
C1713       C  0.22935969  0.73885066  0.38038045    -0.20200
C1714       C  0.20879392  0.71965430  0.38061912    -0.08300
C1715       C  0.21524585  0.69156890  0.37818999     0.30600
C1716       C  0.24218667  0.68292131  0.37535872    -0.20200
C1717       C  0.26285672  0.70221797  0.37589242    -0.08300
C1718       C  0.25623450  0.73025208  0.37849674     0.30600
F1719       F  0.27579363  0.74945130  0.37852971    -0.18800
H1720       H  0.22454258  0.76044414  0.38256845     0.18900
H1721       H  0.24694295  0.66130951  0.37313871     0.19000
F1722       F  0.19540895  0.67269105  0.37854425    -0.18800
C1723       C  0.16691625  0.68198987  0.43954331    -0.20200
C1724       C  0.17921372  0.70592216  0.43105926    -0.08300
C1725       C  0.20323257  0.71422782  0.44423410     0.30600
C1726       C  0.21550136  0.69796755  0.46441866    -0.20200
C1727       C  0.20422360  0.67298797  0.47191343    -0.08300
C1728       C  0.17894379  0.66592838  0.45991886     0.30600
F1729       F  0.16582735  0.64318105  0.46778803    -0.18800
H1730       H  0.14818658  0.67540877  0.43001389     0.18900
H1731       H  0.23311059  0.70578291  0.47457959     0.19000
F1732       F  0.21457039  0.73845690  0.43804968    -0.18800
C1733       C  0.10123172  0.78259553  0.38807736    -0.20200
C1734       C  0.11558967  0.76457264  0.37086694    -0.08300
C1735       C  0.10760989  0.76379012  0.34318169     0.30600
C1736       C  0.08658192  0.78099373  0.33306038    -0.20200
C1737       C  0.07265529  0.79923546  0.35020737    -0.08300
C1738       C  0.08002971  0.79963914  0.37793084     0.30600
F1739       F  0.06674695  0.81668990  0.39516859    -0.18800
H1740       H  0.10676823  0.78388015  0.40938814     0.18900
H1741       H  0.08087103  0.77985576  0.31178359     0.19000
F1742       F  0.11979195  0.74596332  0.32588885    -0.18800
C1743       C  0.12291686  0.73709753  0.45050390    -0.20200
C1744       C  0.12022964  0.72749178  0.42391062    -0.08300
C1745       C  0.09772048  0.71237436  0.41552615     0.30600
C1746       C  0.07684690  0.70848781  0.43348750    -0.20200
C1747       C  0.07878060  0.71980203  0.45950663    -0.08300
C1748       C  0.10207481  0.73336974  0.46834794     0.30600
F1749       F  0.10363761  0.74467902  0.49355802    -0.18800
H1750       H  0.14062466  0.74836333  0.45699880     0.18900
H1751       H  0.05855703  0.69843066  0.42661646     0.19000
F1752       F  0.09580792  0.70205671  0.38994472    -0.18800
C1753       C  0.77329230  0.14210803  0.12811111    -0.20200
C1754       C  0.80049725  0.13802954  0.13630548    -0.08300
C1755       C  0.81964001  0.13038834  0.11653646     0.30600
C1756       C  0.81191207  0.12822885  0.08936560    -0.20200
C1757       C  0.78503848  0.13291844  0.08125963    -0.08300
C1758       C  0.76554842  0.13932920  0.10078062     0.30600
F1759       F  0.73920637  0.14331055  0.09333240    -0.18800
H1760       H  0.75811016  0.14791099  0.14274005     0.18900
H1761       H  0.82692446  0.12228809  0.07459227     0.19000
F1762       F  0.84607029  0.12548403  0.12314150    -0.18800
C1763       C  0.90575209  0.95277975  0.28643137    -0.20200
C1764       C  0.88916747  0.96233584  0.30737448    -0.08300
C1765       C  0.89109907  0.94960490  0.33286390     0.30600
C1766       C  0.90956808  0.92777382  0.33721521    -0.20200
C1767       C  0.92633427  0.91867025  0.31620071    -0.08300
C1768       C  0.92421848  0.93140874  0.29076864     0.30600
F1769       F  0.94022099  0.92314232  0.27006719    -0.18800
H1770       H  0.90444772  0.96186203  0.26650838     0.18900
H1771       H  0.91123124  0.91836113  0.35701228     0.19000
F1772       F  0.87481821  0.95796554  0.35328355    -0.18800
C1773       C  0.86636702  0.05988847  0.26497742    -0.20200
C1774       C  0.84680274  0.05199438  0.28331957    -0.08300
C1775       C  0.82293574  0.06762768  0.28600870     0.30600
C1776       C  0.81839368  0.09048279  0.26959144    -0.20200
C1777       C  0.83750599  0.09753598  0.25014904    -0.08300
C1778       C  0.86172861  0.08210738  0.24823213     0.30600
F1779       F  0.88019067  0.08709778  0.22885719    -0.18800
H1780       H  0.88397997  0.04707518  0.26132484     0.18900
H1781       H  0.79971805  0.10218965  0.27160708     0.19000
F1782       F  0.80332157  0.05960243  0.30303369    -0.18800
C1783       C  0.03149529  0.94196014  0.26282717    -0.20200
C1784       C  0.05384356  0.95248667  0.27773314    -0.08300
C1785       C  0.06373203  0.93492775  0.29883057     0.30600
C1786       C  0.05167282  0.90907879  0.30489884    -0.20200
C1787       C  0.02942417  0.89830613  0.28981152    -0.08300
C1788       C  0.01946376  0.91612015  0.26877408     0.30600
F1789       F  0.99752951  0.90874838  0.25368937    -0.18800
H1790       H  0.02369700  0.95345480  0.24559591     0.18900
H1791       H  0.05985233  0.89763150  0.32192347     0.19000
F1792       F  0.08589512  0.94251469  0.31348500    -0.18800
C1793       C  0.93358932  0.21467931  0.12904483    -0.20200
C1794       C  0.94917531  0.23361209  0.14355447    -0.08300
C1795       C  0.93865340  0.24613268  0.16685861     0.30600
C1796       C  0.91298579  0.23917281  0.17590477    -0.20200
C1797       C  0.89774850  0.21923811  0.16210172    -0.08300
C1798       C  0.90818468  0.20730747  0.13826566     0.30600
F1799       F  0.89416274  0.18808847  0.12413998    -0.18800
H1800       H  0.94159992  0.20473810  0.11114844     0.18900
H1801       H  0.90553963  0.24850987  0.19436462     0.19000
F1802       F  0.95345872  0.26459346  0.18116254    -0.18800
C1803       C  0.24407860  0.12144057  0.07887815    -0.20200
C1804       C  0.23088617  0.12019798  0.05342695    -0.08300
C1805       C  0.20246170  0.12376974  0.05254041     0.30600
C1806       C  0.18810649  0.13105172  0.07604656    -0.20200
C1807       C  0.20153260  0.13373510  0.10125258    -0.08300
C1808       C  0.22963272  0.12801266  0.10249490     0.30600
F1809       F  0.24355363  0.13105022  0.12628239    -0.18800
H1810       H  0.26586077  0.11887945  0.08030509     0.18900
H1811       H  0.16665950  0.13582578  0.07431584     0.19000
F1812       F  0.18855488  0.12080212  0.02878651    -0.18800
C1813       C  0.12704648  0.08153361  0.24570447    -0.20200
C1814       C  0.12869698  0.08672213  0.21760332    -0.08300
C1815       C  0.11541098  0.06871833  0.19959798     0.30600
C1816       C  0.10279537  0.04513235  0.20961174    -0.20200
C1817       C  0.10244208  0.03949871  0.23771013    -0.08300
C1818       C  0.11417103  0.05840407  0.25561837     0.30600
F1819       F  0.11500629  0.05353203  0.28267332    -0.18800
H1820       H  0.13663355  0.09509832  0.26028845     0.18900
H1821       H  0.09407260  0.03067917  0.19533902     0.19000
F1822       F  0.11581059  0.07303447  0.17244199    -0.18800
C1823       C  0.05449244  0.19721144  0.13968183    -0.20200
C1824       C  0.04931754  0.22564905  0.13921952    -0.08300
C1825       C  0.07108371  0.24335589  0.14366919     0.30600
C1826       C  0.09749433  0.23284789  0.14711053    -0.20200
C1827       C  0.10279801  0.20441047  0.14718443    -0.08300
C1828       C  0.08084643  0.18663641  0.14395609     0.30600
F1829       F  0.08491039  0.15909880  0.14419691    -0.18800
H1830       H  0.03806137  0.18310616  0.13640822     0.18900
H1831       H  0.11384471  0.24706715  0.15036645     0.19000
F1832       F  0.06678184  0.27078335  0.14549041    -0.18800
C1833       C  0.85470870  0.79786036  0.30053482    -0.20200
C1834       C  0.84574009  0.78124536  0.27912031    -0.08300
C1835       C  0.84543857  0.75271171  0.28185109     0.30600
C1836       C  0.85423825  0.74082584  0.30589511    -0.20200
C1837       C  0.86269291  0.75731052  0.32757826    -0.08300
C1838       C  0.86285578  0.78591497  0.32498078     0.30600
F1839       F  0.87046217  0.80213324  0.34612082    -0.18800
H1840       H  0.85474813  0.81992778  0.29849887     0.18900
H1841       H  0.85464941  0.71872931  0.30756996     0.19000
F1842       F  0.83722619  0.73636667  0.26099227    -0.18800
C1843       C  0.79894752  0.88632857  0.07898600    -0.20200
C1844       C  0.79097431  0.86494338  0.09575612    -0.08300
C1845       C  0.76767691  0.84986604  0.08846742     0.30600
C1846       C  0.75459415  0.85431467  0.06373099    -0.20200
C1847       C  0.76392402  0.87414709  0.04625645    -0.08300
C1848       C  0.78541259  0.89099706  0.05432339     0.30600
F1849       F  0.79496825  0.91010100  0.03725911    -0.18800
H1850       H  0.81643971  0.89846517  0.08424163     0.18900
H1851       H  0.73800119  0.84130066  0.05756742     0.19000
F1852       F  0.75802088  0.82997154  0.10460358    -0.18800
C1853       C  0.84303345  0.90713177  0.26206550    -0.20200
C1854       C  0.85464422  0.90762733  0.23615754    -0.08300
C1855       C  0.86196834  0.93274392  0.22502537     0.30600
C1856       C  0.85725081  0.95683178  0.23948564    -0.20200
C1857       C  0.84535476  0.95614078  0.26509052    -0.08300
C1858       C  0.83836691  0.93120339  0.27637265     0.30600
F1859       F  0.82794870  0.93015423  0.30163741    -0.18800
H1860       H  0.83720004  0.88807801  0.27125292     0.18900
H1861       H  0.86468232  0.97573993  0.23151292     0.19000
F1862       F  0.87366683  0.93410996  0.20037100    -0.18800
C1863       C  0.01164418  0.81635190  0.16243099    -0.20200
C1864       C  0.99521284  0.79433390  0.15446909    -0.08300
C1865       C  0.97798639  0.78376220  0.17420584     0.30600
C1866       C  0.97743680  0.79466857  0.20083561    -0.20200
C1867       C  0.99447111  0.81627674  0.20938097    -0.08300
C1868       C  0.01171165  0.82690923  0.18922299     0.30600
F1869       F  0.02929515  0.84718749  0.19490586    -0.18800
H1870       H  0.02485801  0.82537139  0.14780849     0.18900
H1871       H  0.96354500  0.78567914  0.21474379     0.19000
F1872       F  0.96218832  0.76208154  0.16807598    -0.18800
C1873       C  0.92030458  0.82862364  0.12556489    -0.20200
C1874       C  0.89795853  0.81231920  0.13132104    -0.08300
C1875       C  0.90063131  0.78367993  0.12745453     0.30600
C1876       C  0.92540683  0.77190444  0.11926821    -0.20200
C1877       C  0.94790639  0.78832466  0.11451704    -0.08300
C1878       C  0.94484404  0.81686872  0.11725338     0.30600
F1879       F  0.96602738  0.83346473  0.11267706    -0.18800
H1880       H  0.91900893  0.85064621  0.12798414     0.18900
H1881       H  0.92731300  0.74987538  0.11812542     0.19000
F1882       F  0.87983881  0.76684387  0.13286898    -0.18800
C1883       C  0.18916357  0.75850887  0.30044765    -0.20200
C1884       C  0.18145789  0.78611656  0.29796055    -0.08300
C1885       C  0.17184879  0.80084003  0.32030380     0.30600
C1886       C  0.16867525  0.78752334  0.34473746    -0.20200
C1887       C  0.17396952  0.75932718  0.34653002    -0.08300
C1888       C  0.18500270  0.74492785  0.32457925     0.30600
F1889       F  0.18944706  0.71746411  0.32560087    -0.18800
H1890       H  0.19640118  0.74697828  0.28310132     0.18900
H1891       H  0.16059483  0.79882877  0.36183148     0.19000
F1892       F  0.16471258  0.82770545  0.31818670    -0.18800
C1893       C  0.07400681  0.77220570  0.16826015    -0.20200
C1894       C  0.09095444  0.79330529  0.15994260    -0.08300
C1895       C  0.08653231  0.80461823  0.13382583     0.30600
C1896       C  0.06458661  0.79623154  0.11752733    -0.20200
C1897       C  0.04682317  0.77645504  0.12685120    -0.08300
C1898       C  0.05231440  0.76375241  0.15184920     0.30600
F1899       F  0.03555879  0.74429651  0.16112205    -0.18800
H1900       H  0.07715921  0.76254359  0.18779781     0.18900
H1901       H  0.06042895  0.80646304  0.09842971     0.19000
F1902       F  0.10254490  0.82466597  0.12444520    -0.18800
C1903       C  0.14061696  0.90437699  0.24588180    -0.20200
C1904       C  0.12728283  0.88930909  0.22552223    -0.08300
C1905       C  0.10224268  0.89899676  0.21518373     0.30600
C1906       C  0.09097021  0.92366686  0.22477038    -0.20200
C1907       C  0.10437206  0.93887938  0.24499094    -0.08300
C1908       C  0.12932369  0.92901537  0.25551166     0.30600
F1909       F  0.14290908  0.94344805  0.27485206    -0.18800
H1910       H  0.15962483  0.89687494  0.25452359     0.18900
H1911       H  0.07215080  0.93132966  0.21586101     0.19000
F1912       F  0.08880415  0.88460521  0.19570636    -0.18800
C1913       C  0.20511783  0.83748250  0.08648717    -0.20200
C1914       C  0.18875584  0.85152328  0.10514575    -0.08300
C1915       C  0.17961057  0.87833045  0.09975981     0.30600
C1916       C  0.18939531  0.89178345  0.07729591    -0.20200
C1917       C  0.20846868  0.87855861  0.06091167    -0.08300
C1918       C  0.21552191  0.85117670  0.06484549     0.30600
F1919       F  0.23332517  0.83809792  0.04835130    -0.18800
H1920       H  0.21171647  0.81648984  0.08982047     0.18900
H1921       H  0.18276271  0.91258712  0.07311676     0.19000
F1922       F  0.16292332  0.89199330  0.11695425    -0.18800
C1923       C  0.00412875  0.77256485  0.75531235    -0.20200
C1924       C  0.99678622  0.79928854  0.76348820    -0.08300
C1925       C  0.98713256  0.80358229  0.78988820     0.30600
C1926       C  0.98725209  0.78199293  0.80823998    -0.20200
C1927       C  0.99747373  0.75616714  0.80076302    -0.08300
C1928       C  0.00462370  0.75116667  0.77388855     0.30600
F1929       F  0.01325606  0.72587341  0.76607352    -0.18800
H1930       H  0.01060632  0.76849541  0.73480204     0.18900
H1931       H  0.98110734  0.78589612  0.82884619     0.19000
F1932       F  0.97979182  0.82891110  0.79876824    -0.18800
C1933       C  0.18812807  0.80587756  0.72085011    -0.20200
C1934       C  0.17414333  0.79501461  0.74279928    -0.08300
C1935       C  0.14812862  0.78431479  0.73848197     0.30600
C1936       C  0.13704997  0.78332828  0.71245602    -0.20200
C1937       C  0.15191383  0.79253281  0.69058074    -0.08300
C1938       C  0.17702482  0.80474515  0.69485401     0.30600
F1939       F  0.19162919  0.81357248  0.67362707    -0.18800
H1940       H  0.20776973  0.81509552  0.72371616     0.18900
H1941       H  0.11792079  0.77318755  0.70908953     0.19000
F1942       F  0.13391572  0.77361945  0.75904368    -0.18800
C1943       C  0.06741866  0.79993174  0.84460642    -0.20200
C1944       C  0.09245413  0.79213125  0.83385192    -0.08300
C1945       C  0.09490051  0.76646751  0.82044267     0.30600
C1946       C  0.07341273  0.74846173  0.81967024    -0.20200
C1947       C  0.04918048  0.75563416  0.83192386    -0.08300
C1948       C  0.04586722  0.78179782  0.84367044     0.30600
F1949       F  0.02277960  0.78870435  0.85673213    -0.18800
H1950       H  0.06495733  0.81934775  0.85505683     0.18900
H1951       H  0.07602431  0.72845973  0.81038009     0.19000
F1952       F  0.11842629  0.75802019  0.80904991    -0.18800
C1953       C  0.23508783  0.90775744  0.94778956    -0.20200
C1954       C  0.21679953  0.90948594  0.96895500    -0.08300
C1955       C  0.18893551  0.91266487  0.96329215     0.30600
C1956       C  0.17909928  0.90790886  0.93720697    -0.20200
C1957       C  0.19728701  0.90116183  0.91677156    -0.08300
C1958       C  0.22532033  0.90470126  0.92143021     0.30600
F1959       F  0.24340207  0.90159355  0.90114942    -0.18800
H1960       H  0.25665689  0.90615122  0.95168593     0.18900
H1961       H  0.15744117  0.90651643  0.93380913     0.19000
F1962       F  0.17109660  0.91722501  0.98352282    -0.18800
C1963       C  0.06570163  0.96892158  0.74795288    -0.20200
C1964       C  0.07545068  0.94865370  0.72976060    -0.08300
C1965       C  0.10241721  0.95068342  0.72103986     0.30600
C1966       C  0.11903583  0.97141033  0.73113906    -0.20200
C1967       C  0.10926743  0.99105796  0.74952882    -0.08300
C1968       C  0.08222694  0.99004166  0.75741457     0.30600
F1969       F  0.07223911  0.00817161  0.77575148    -0.18800
H1970       H  0.04544153  0.96829322  0.75572829     0.18900
H1971       H  0.13997677  0.97181607  0.72498548     0.19000
F1972       F  0.11303292  0.93295009  0.70271246    -0.18800
C1973       C  0.13591967  0.93422537  0.81552177    -0.20200
C1974       C  0.16002220  0.91898618  0.81250883    -0.08300
C1975       C  0.18109968  0.93014060  0.79733973     0.30600
C1976       C  0.17804112  0.95612199  0.78577242    -0.20200
C1977       C  0.15412107  0.97139469  0.78930799    -0.08300
C1978       C  0.13308572  0.96027984  0.80436017     0.30600
F1979       F  0.11037986  0.97523811  0.80965332    -0.18800
H1980       H  0.11967344  0.92653130  0.82766243     0.18900
H1981       H  0.19444614  0.96446433  0.77429301     0.19000
F1982       F  0.20473195  0.91609972  0.79387285    -0.18800
C1983       C  0.18148398  0.11572038  0.78088303    -0.20200
C1984       C  0.17589299  0.12225071  0.80804788    -0.08300
C1985       C  0.16189233  0.10328386  0.82385078     0.30600
C1986       C  0.15509344  0.07789901  0.81316921    -0.20200
C1987       C  0.16158361  0.07106723  0.78653166    -0.08300
C1988       C  0.17428065  0.09018141  0.77011418     0.30600
F1989       F  0.18047187  0.08375908  0.74411395    -0.18800
H1990       H  0.19229613  0.12989023  0.76839038     0.18900
H1991       H  0.14486827  0.06337256  0.82579547     0.19000
F1992       F  0.15500629  0.10908921  0.84983252    -0.18800
C1993       C  0.24374337  0.13383355  0.91656206    -0.20200
C1994       C  0.26378337  0.15080985  0.90616727    -0.08300
C1995       C  0.28372568  0.16150214  0.92374514     0.30600
C1996       C  0.28325288  0.15525312  0.95138979    -0.20200
C1997       C  0.26268499  0.13884942  0.96130654    -0.08300
C1998       C  0.24297897  0.12822588  0.94385313     0.30600
F1999       F  0.22361807  0.11139512  0.95314858    -0.18800
H2000       H  0.22808779  0.12512527  0.90366912     0.18900
H2001       H  0.29905242  0.16267131  0.96491315     0.19000
F2002       F  0.30357799  0.17755111  0.91427749    -0.18800
C2003       C  0.12245598  0.23578435  0.85690948    -0.20200
C2004       C  0.13675741  0.21493560  0.87086343    -0.08300
C2005       C  0.12624038  0.20448123  0.89506770     0.30600
C2006       C  0.10209344  0.21482135  0.90493271    -0.20200
C2007       C  0.08798825  0.23538380  0.89092185    -0.08300
C2008       C  0.09801220  0.24587546  0.86684188     0.30600
F2009       F  0.08381032  0.26523677  0.85268850    -0.18800
H2010       H  0.13002749  0.24410210  0.83825006     0.18900
H2011       H  0.09370499  0.20582260  0.92289162     0.19000
F2012       F  0.13859802  0.18361723  0.90883197    -0.18800
C2013       C  0.95581224  0.92689591  0.77072858    -0.20200
C2014       C  0.93578700  0.94236530  0.75719724    -0.08300
C2015       C  0.93469865  0.94169266  0.72867078     0.30600
C2016       C  0.95234416  0.92435538  0.71408039    -0.20200
C2017       C  0.97195876  0.90789279  0.72765306    -0.08300
C2018       C  0.97417327  0.91059986  0.75624642     0.30600
F2019       F  0.99469024  0.89807810  0.77031847    -0.18800
H2020       H  0.95769612  0.92803052  0.79263333     0.18900
H2021       H  0.95118772  0.92462381  0.69216534     0.19000
F2022       F  0.91663260  0.95788925  0.71494989    -0.18800
C2023       C  0.90005542  0.05505398  0.84633052    -0.20200
C2024       C  0.87997233  0.07165465  0.83405884    -0.08300
C2025       C  0.86906623  0.06401858  0.80850651     0.30600
C2026       C  0.87698169  0.03964744  0.79616435    -0.20200
C2027       C  0.89606418  0.02253247  0.80881090    -0.08300
C2028       C  0.90801598  0.03038879  0.83375203     0.30600
F2029       F  0.92627907  0.01357332  0.84645324    -0.18800
H2030       H  0.90854440  0.06049893  0.86599417     0.18900
H2031       H  0.86750116  0.03363349  0.77710426     0.19000
F2032       F  0.85010602  0.07997217  0.79566857    -0.18800
C2033       C  0.94509142  0.22118417  0.88767959    -0.20200
C2034       C  0.94404767  0.19238578  0.88896406    -0.08300
C2035       C  0.96644323  0.17782358  0.89962902     0.30600
C2036       C  0.99026881  0.19180429  0.90644042    -0.20200
C2037       C  0.99178908  0.22035165  0.90301993    -0.08300
C2038       C  0.96871059  0.23504878  0.89444580     0.30600
F2039       F  0.96960208  0.26246348  0.89042171    -0.18800
H2040       H  0.92799219  0.23295835  0.87971607     0.18900
H2041       H  0.00797591  0.18023409  0.91325438     0.19000
F2042       F  0.96606479  0.15013721  0.90137862    -0.18800
C2043       C  0.79751263  0.15209691  0.96887793    -0.20200
C2044       C  0.79760938  0.12706169  0.98276417    -0.08300
C2045       C  0.81325033  0.10509040  0.97245570     0.30600
C2046       C  0.82739474  0.10786701  0.94816013    -0.20200
C2047       C  0.82699211  0.13284553  0.93417029    -0.08300
C2048       C  0.81211974  0.15502142  0.94493390     0.30600
F2049       F  0.81043488  0.17908416  0.93134254    -0.18800
H2050       H  0.78574935  0.16933948  0.97637385     0.18900
H2051       H  0.83811375  0.09029165  0.93986517     0.19000
F2052       F  0.81506451  0.08100967  0.98600833    -0.18800
C2053       C  0.86410456  0.79088548  0.70340264    -0.20200
C2054       C  0.83663335  0.79568744  0.70840087    -0.08300
C2055       C  0.81893708  0.80356488  0.68700621     0.30600
C2056       C  0.82826257  0.80402388  0.66074602    -0.20200
C2057       C  0.85477458  0.79561476  0.65548529    -0.08300
C2058       C  0.87317406  0.79046958  0.67697343     0.30600
F2059       F  0.89866746  0.78109174  0.67251433    -0.18800
H2060       H  0.87813140  0.78531292  0.71966989     0.18900
H2061       H  0.81397821  0.80787207  0.64419907     0.19000
F2062       F  0.79231911  0.80931905  0.69108398    -0.18800
C2063       C  0.76414403  0.82223040  0.91206126    -0.20200
C2064       C  0.79213124  0.82494732  0.90808237    -0.08300
C2065       C  0.80792506  0.83982938  0.92678939     0.30600
C2066       C  0.79562793  0.85280382  0.94826946    -0.20200
C2067       C  0.76777801  0.85067225  0.95169841    -0.08300
C2068       C  0.75195404  0.83505945  0.93399485     0.30600
F2069       F  0.72497984  0.83247227  0.93785916    -0.18800
H2070       H  0.75164475  0.81083406  0.89784663     0.18900
H2071       H  0.80776076  0.86507581  0.96204641     0.19000
F2072       F  0.83489294  0.84332225  0.92359529    -0.18800
C2073       C  0.87158969  0.87861611  0.77867007    -0.20200
C2074       C  0.86640932  0.87158460  0.80572926    -0.08300
C2075       C  0.87167638  0.89085048  0.82644331     0.30600
C2076       C  0.88170436  0.91632742  0.82015710    -0.20200
C2077       C  0.88608428  0.92373474  0.79323064    -0.08300
C2078       C  0.88124602  0.90460666  0.77238885     0.30600
F2079       F  0.88487088  0.91124392  0.74605551    -0.18800
H2080       H  0.86784202  0.86415372  0.76235179     0.18900
H2081       H  0.88605038  0.93045310  0.83659682     0.19000
F2082       F  0.86747814  0.88519759  0.85296552    -0.18800
C2083       C  0.92249752  0.76072877  0.84670125    -0.20200
C2084       C  0.90837270  0.75592880  0.82226055    -0.08300
C2085       C  0.91778504  0.73545678  0.80446207     0.30600
C2086       C  0.94235418  0.72178936  0.81031503    -0.20200
C2087       C  0.95732266  0.72840637  0.83388809    -0.08300
C2088       C  0.94691413  0.74771444  0.85218814     0.30600
F2089       F  0.96202735  0.75730742  0.87323615    -0.18800
H2090       H  0.91561239  0.77613368  0.86101773     0.18900
H2091       H  0.95066751  0.70756749  0.79559435     0.19000
F2092       F  0.90440829  0.73003212  0.78081181    -0.18800
C2093       C  0.52077836  0.26964810  0.71031173    -0.20200
C2094       C  0.52384192  0.27537491  0.68261005    -0.08300
C2095       C  0.52748056  0.30262347  0.67454192     0.30600
C2096       C  0.52723472  0.32368481  0.69389234    -0.20200
C2097       C  0.52266047  0.31779826  0.72122796    -0.08300
C2098       C  0.52001584  0.29069637  0.72940372     0.30600
F2099       F  0.51653240  0.28477118  0.75595540    -0.18800
H2100       H  0.51864800  0.24881866  0.71718945     0.18900
H2101       H  0.52985539  0.34460600  0.68750846     0.19000
F2102       F  0.52986571  0.30899000  0.64795155    -0.18800
C2103       C  0.56394341  0.24209954  0.57987429    -0.20200
C2104       C  0.56464378  0.21474577  0.58905975    -0.08300
C2105       C  0.58223536  0.19624068  0.57551622     0.30600
C2106       C  0.59983599  0.20525627  0.55534038    -0.20200
C2107       C  0.59987235  0.23275039  0.54726627    -0.08300
C2108       C  0.58115924  0.25094005  0.55929033     0.30600
F2109       F  0.57867199  0.27707524  0.55039306    -0.18800
H2110       H  0.54927641  0.25661040  0.58770740     0.18900
H2111       H  0.61353799  0.19065048  0.54594972     0.19000
F2112       F  0.58220372  0.16917998  0.58151126    -0.18800
C2113       C  0.44693682  0.22652166  0.51616881    -0.20200
C2114       C  0.42021348  0.23020442  0.52496780    -0.08300
C2115       C  0.41298232  0.21775085  0.54943162     0.30600
C2116       C  0.43255838  0.20389200  0.56539150    -0.20200
C2117       C  0.45953370  0.20082010  0.55671853    -0.08300
C2118       C  0.46581308  0.21090787  0.53088084     0.30600
F2119       F  0.49018155  0.20579796  0.51946556    -0.18800
H2120       H  0.45379736  0.23603383  0.49791381     0.18900
H2121       H  0.42636542  0.19597318  0.58467011     0.19000
F2122       F  0.38703290  0.21852409  0.55792739    -0.18800
C2123       C  0.82982523  0.98555050  0.85325431    -0.20200
C2124       C  0.80645202  0.98597918  0.83657453    -0.08300
C2125       C  0.80912466  0.98116878  0.80857619     0.30600
C2126       C  0.83471402  0.97607188  0.79758546    -0.20200
C2127       C  0.85808235  0.97608071  0.81419973    -0.08300
C2128       C  0.85546075  0.98097453  0.84215373     0.30600
F2129       F  0.87769882  0.98108026  0.85867358    -0.18800
H2130       H  0.82815353  0.98899596  0.87487874     0.18900
H2131       H  0.83646815  0.97262804  0.77596661     0.19000
F2132       F  0.78689571  0.98063867  0.79202253    -0.18800
C2133       C  0.70833909  0.94621172  0.93487071    -0.20200
C2134       C  0.72529536  0.94815859  0.91224692    -0.08300
C2135       C  0.74446358  0.92688989  0.90862431     0.30600
C2136       C  0.75017016  0.90815047  0.92945720    -0.20200
C2137       C  0.73492928  0.90775156  0.95342313    -0.08300
C2138       C  0.71284900  0.92635291  0.95497002     0.30600
F2139       F  0.69488463  0.92505087  0.97533843    -0.18800
H2140       H  0.69140503  0.96034454  0.93713606     0.18900
H2141       H  0.76686018  0.89423300  0.92626636     0.19000
F2142       F  0.75640964  0.92262733  0.88442749    -0.18800
C2143       C  0.74693701  0.04200018  0.97313933    -0.20200
C2144       C  0.73288754  0.05392563  0.95064372    -0.08300
C2145       C  0.72815741  0.08249159  0.95139686     0.30600
C2146       C  0.73783943  0.09824986  0.97334064    -0.20200
C2147       C  0.75179874  0.08607758  0.99545042    -0.08300
C2148       C  0.75589710  0.05773572  0.99530247     0.30600
F2149       F  0.77003713  0.04540255  0.01581066    -0.18800
H2150       H  0.75181152  0.02042273  0.97373828     0.18900
H2151       H  0.73467928  0.12024365  0.97295954     0.19000
F2152       F  0.71399435  0.09536334  0.93125859    -0.18800
C2153       C  0.21539570  0.01191262  0.84508045    -0.20200
C2154       C  0.24032379  0.01628852  0.83271156    -0.08300
C2155       C  0.24077874  0.02232642  0.80491738     0.30600
C2156       C  0.21656971  0.02396935  0.78976144    -0.20200
C2157       C  0.19170724  0.01909735  0.80199560    -0.08300
C2158       C  0.19121830  0.01301157  0.82978640     0.30600
F2159       F  0.16736429  0.00847848  0.84206953    -0.18800
H2160       H  0.21481289  0.00734886  0.86652791     0.18900
H2161       H  0.21710689  0.02884458  0.76838225     0.19000
F2162       F  0.26458713  0.02724926  0.79269233    -0.18800
C2163       C  0.27386808  0.97183483  0.96749119    -0.20200
C2164       C  0.29883154  0.95976156  0.96007613    -0.08300
C2165       C  0.30749394  0.93579789  0.97349824     0.30600
C2166       C  0.29099597  0.92379751  0.99313332    -0.20200
C2167       C  0.26556703  0.93546177  0.99961677    -0.08300
C2168       C  0.25744965  0.95987615  0.98683744     0.30600
F2169       F  0.23267772  0.97111756  0.99169145    -0.18800
H2170       H  0.26665701  0.99034330  0.95765996     0.18900
H2171       H  0.29727685  0.90443969  0.00202032     0.19000
F2172       F  0.33170305  0.92397761  0.96747578    -0.18800
C2173       C  0.32027746  0.07622547  0.93596150    -0.20200
C2174       C  0.30428128  0.05637715  0.92260159    -0.08300
C2175       C  0.27893440  0.05084168  0.93485908     0.30600
C2176       C  0.27051688  0.06413185  0.95889902    -0.20200
C2177       C  0.28648918  0.08381616  0.97203302    -0.08300
C2178       C  0.31138720  0.09001429  0.95981647     0.30600
F2179       F  0.32739905  0.10938061  0.97120143    -0.18800
H2180       H  0.34017171  0.08057219  0.92840811     0.18900
H2181       H  0.25096134  0.05929636  0.96706036     0.19000
F2182       F  0.26288635  0.03071654  0.92503465    -0.18800
C2183       C  0.50945661  0.66021436  0.68218963    -0.20200
C2184       C  0.52020485  0.68349273  0.69531623    -0.08300
C2185       C  0.53235327  0.67982747  0.72133482     0.30600
C2186       C  0.53385344  0.65397669  0.73335800    -0.20200
C2187       C  0.52293212  0.63098031  0.72041715    -0.08300
C2188       C  0.51067852  0.63428871  0.69460870     0.30600
F2189       F  0.49949154  0.61254075  0.68168219    -0.18800
H2190       H  0.50005512  0.66202973  0.66228226     0.18900
H2191       H  0.54245181  0.65207468  0.75362190     0.19000
F2192       F  0.54153176  0.70128665  0.73619223    -0.18800
C2193       C  0.45441579  0.78175286  0.60545834    -0.20200
C2194       C  0.47284720  0.76200814  0.61617378    -0.08300
C2195       C  0.47764854  0.73825818  0.60009099     0.30600
C2196       C  0.46364663  0.73400105  0.57549631    -0.20200
C2197       C  0.44472337  0.75325616  0.56559212    -0.08300
C2198       C  0.44021907  0.77725930  0.58084745     0.30600
F2199       F  0.42184099  0.79630372  0.57202583    -0.18800
H2200       H  0.45156987  0.80124471  0.61554200     0.18900
H2201       H  0.46715262  0.71511821  0.56437566     0.19000
F2202       F  0.49751609  0.71994981  0.60680794    -0.18800
C2203       C  0.59647894  0.77644337  0.57199679    -0.20200
C2204       C  0.57034774  0.76696353  0.57697304    -0.08300
C2205       C  0.55897107  0.74819892  0.55792585     0.30600
C2206       C  0.57286519  0.74019273  0.53452059    -0.20200
C2207       C  0.59896964  0.74940679  0.52977879    -0.08300
C2208       C  0.61074128  0.76756623  0.54891125     0.30600
F2209       F  0.63650661  0.77603123  0.54569365    -0.18800
H2210       H  0.60592274  0.79060746  0.58607297     0.18900
H2211       H  0.56397562  0.72504145  0.52108797     0.19000
F2212       F  0.53511904  0.73588113  0.56260179    -0.18800
C2213       C  0.33412715  0.83375412  0.74541626    -0.20200
C2214       C  0.35834476  0.83490813  0.76084009    -0.08300
C2215       C  0.37237876  0.80988155  0.76568197     0.30600
C2216       C  0.36241692  0.78464445  0.75536562    -0.20200
C2217       C  0.33851990  0.78360896  0.73927170    -0.08300
C2218       C  0.32464068  0.80876781  0.73442095     0.30600
F2219       F  0.30191829  0.80928267  0.71851699    -0.18800
H2220       H  0.32293932  0.85252153  0.74112336     0.18900
H2221       H  0.37409804  0.76602956  0.75895596     0.19000
F2222       F  0.39593607  0.80986479  0.78022138    -0.18800
C2223       C  0.31045225  0.89122396  0.80019893    -0.20200
C2224       C  0.33258986  0.87321341  0.80347510    -0.08300
C2225       C  0.33103230  0.85064299  0.82061723     0.30600
C2226       C  0.30672486  0.84508530  0.83300909    -0.20200
C2227       C  0.28401629  0.86220180  0.82855205    -0.08300
C2228       C  0.28619223  0.88588486  0.81279665     0.30600
F2229       F  0.26440804  0.90249647  0.80768065    -0.18800
H2230       H  0.31171099  0.90885395  0.78707988     0.18900
H2231       H  0.30527666  0.82680358  0.84520224     0.19000
F2232       F  0.35285221  0.83391945  0.82506917    -0.18800
C2233       C  0.43742433  0.85601134  0.75282891    -0.20200
C2234       C  0.41121159  0.86194380  0.74303139    -0.08300
C2235       C  0.40468251  0.85528717  0.71596823     0.30600
C2236       C  0.42392812  0.84236252  0.69929494    -0.20200
C2237       C  0.45013328  0.83532745  0.70922831    -0.08300
C2238       C  0.45660393  0.84273552  0.73644823     0.30600
F2239       F  0.48095099  0.83637709  0.74803044    -0.18800
H2240       H  0.44286080  0.86103183  0.77363645     0.18900
H2241       H  0.41818597  0.83790543  0.67849061     0.19000
F2242       F  0.37987486  0.86191558  0.70544589    -0.18800
C2243       C  0.36784653  0.92351991  0.84056825    -0.20200
C2244       C  0.36455815  0.92640049  0.81222588    -0.08300
C2245       C  0.35292525  0.95122841  0.80296017     0.30600
C2246       C  0.34365337  0.97164853  0.82136601    -0.20200
C2247       C  0.34604588  0.96869229  0.84994580    -0.08300
C2248       C  0.35963540  0.94442560  0.85901996     0.30600
F2249       F  0.36638313  0.94107977  0.88555748    -0.18800
H2250       H  0.37734059  0.90503669  0.84852438     0.18900
H2251       H  0.33441992  0.99009155  0.81306863     0.19000
F2252       F  0.34984384  0.95552577  0.77592151    -0.18800
C2253       C  0.42629489  0.93448154  0.79160532    -0.20200
C2254       C  0.41401206  0.92111326  0.76954033    -0.08300
C2255       C  0.42234223  0.92735234  0.74312815     0.30600
C2256       C  0.44387385  0.94508885  0.73914687    -0.20200
C2257       C  0.45705997  0.95749204  0.76135048    -0.08300
C2258       C  0.44731775  0.95268248  0.78768101     0.30600
F2259       F  0.45857359  0.96478891  0.80993097    -0.18800
H2260       H  0.42023631  0.93020248  0.81211836     0.18900
H2261       H  0.45048006  0.94875501  0.71867813     0.19000
F2262       F  0.40950072  0.91662392  0.72108631    -0.18800
C2263       C  0.66121817  0.80217762  0.74951162    -0.20200
C2264       C  0.64017179  0.79560586  0.76666194    -0.08300
C2265       C  0.63534217  0.76855106  0.77362333     0.30600
C2266       C  0.65113598  0.74776443  0.76252685    -0.20200
C2267       C  0.67193704  0.75414868  0.74467645    -0.08300
C2268       C  0.67732574  0.78161923  0.73869669     0.30600
F2269       F  0.69716240  0.78861419  0.72144907    -0.18800
H2270       H  0.66473603  0.82326791  0.74419580     0.18900
H2271       H  0.64690505  0.72673166  0.76757871     0.19000
F2272       F  0.61528894  0.76246843  0.79093102    -0.18800
C2273       C  0.67094935  0.81867235  0.82303816    -0.20200
C2274       C  0.66062113  0.83788086  0.80447928    -0.08300
C2275       C  0.67817186  0.85565994  0.79136352     0.30600
C2276       C  0.70590066  0.85326844  0.79584665    -0.20200
C2277       C  0.71629371  0.83257229  0.81256550    -0.08300
C2278       C  0.69884985  0.81583239  0.82696195     0.30600
F2279       F  0.70889113  0.79505729  0.84252656    -0.18800
H2280       H  0.65755933  0.80456169  0.83277571     0.18900
H2281       H  0.71934583  0.86541925  0.78384018     0.19000
F2282       F  0.66898764  0.87257025  0.77140699    -0.18800
C2283       C  0.56281317  0.79717969  0.74628124    -0.20200
C2284       C  0.58591915  0.81258426  0.74219853    -0.08300
C2285       C  0.59426610  0.81673650  0.71528765     0.30600
C2286       C  0.57870197  0.80697851  0.69297078    -0.20200
C2287       C  0.55480346  0.79230362  0.69701979    -0.08300
C2288       C  0.54762849  0.78700630  0.72428246     0.30600
F2289       F  0.52482675  0.77311627  0.72986028    -0.18800
H2290       H  0.55607709  0.79352100  0.76671776     0.18900
H2291       H  0.58490373  0.81178923  0.67265478     0.19000
F2292       F  0.61685998  0.83123652  0.71053099    -0.18800
C2293       C  0.62787456  0.90669349  0.79290763    -0.20200
C2294       C  0.61993029  0.88458491  0.80898880    -0.08300
C2295       C  0.62354219  0.88655862  0.83718761     0.30600
C2296       C  0.63620585  0.90929442  0.84889511    -0.20200
C2297       C  0.64668600  0.93028254  0.83277666    -0.08300
C2298       C  0.64167888  0.92905209  0.80452406     0.30600
F2299       F  0.65224903  0.94792399  0.78785198    -0.18800
H2300       H  0.62575812  0.90540959  0.77104289     0.18900
H2301       H  0.63909142  0.90973886  0.87070076     0.19000
F2302       F  0.61626591  0.86560668  0.85333380    -0.18800
C2303       C  0.57747807  0.88135467  0.74381307    -0.20200
C2304       C  0.57302151  0.86913862  0.76884432    -0.08300
C2305       C  0.55636692  0.88160049  0.78799723     0.30600
C2306       C  0.54748769  0.90815847  0.78372253    -0.20200
C2307       C  0.55499654  0.92182233  0.76015556    -0.08300
C2308       C  0.56846090  0.90783776  0.73937112     0.30600
F2309       F  0.57530698  0.92052184  0.71610198    -0.18800
H2310       H  0.59092120  0.87201973  0.72926008     0.18900
H2311       H  0.53594286  0.91844439  0.79936806     0.19000
F2312       F  0.55182822  0.86941888  0.81215664    -0.18800
C2313       C  0.71194172  0.20654392  0.73246316    -0.20200
C2314       C  0.69123472  0.22577360  0.73831876    -0.08300
C2315       C  0.66655543  0.21573126  0.74826774     0.30600
C2316       C  0.66287375  0.18767532  0.75206641    -0.20200
C2317       C  0.68349339  0.16861579  0.74636468    -0.08300
C2318       C  0.70819165  0.17829658  0.73660810     0.30600
F2319       F  0.72866971  0.16038031  0.73116312    -0.18800
H2320       H  0.73115276  0.21337422  0.72498073     0.18900
H2321       H  0.64395343  0.18078195  0.76015888     0.19000
F2322       F  0.64571489  0.23295420  0.75455443    -0.18800
C2323       C  0.76186691  0.13234555  0.80318853    -0.20200
C2324       C  0.75892904  0.15710297  0.81737474    -0.08300
C2325       C  0.73385698  0.17086116  0.81758464     0.30600
C2326       C  0.71195260  0.16000923  0.80306768    -0.20200
C2327       C  0.71507646  0.13543602  0.78839582    -0.08300
C2328       C  0.74009924  0.12154524  0.78870405     0.30600
F2329       F  0.74364588  0.09794929  0.77443927    -0.18800
H2330       H  0.78112697  0.12137989  0.80338149     0.18900
H2331       H  0.69255920  0.17066326  0.80333600     0.19000
F2332       F  0.73047812  0.19422922  0.83224600    -0.18800
C2333       C  0.64561199  0.14088053  0.69573382    -0.20200
C2334       C  0.63875046  0.13401749  0.72230285    -0.08300
C2335       C  0.61238772  0.13939714  0.73100563     0.30600
C2336       C  0.59313202  0.15118230  0.71334307    -0.20200
C2337       C  0.59934492  0.15726359  0.68615702    -0.08300
C2338       C  0.62614525  0.15201448  0.67765293     0.30600
F2339       F  0.63360215  0.15684972  0.65181422    -0.18800
H2340       H  0.66609118  0.13728609  0.68889589     0.18900
H2341       H  0.57337390  0.15563098  0.72140976     0.19000
F2342       F  0.60549319  0.13416859  0.75697535    -0.18800
C2343       C  0.69095533  0.06225296  0.84208853    -0.20200
C2344       C  0.70069228  0.03592015  0.83471107    -0.08300
C2345       C  0.70325144  0.03053986  0.80657559     0.30600
C2346       C  0.69726320  0.05089764  0.78703671    -0.20200
C2347       C  0.68895950  0.07743692  0.79477419    -0.08300
C2348       C  0.68585502  0.08281535  0.82262455     0.30600
F2349       F  0.67651991  0.10768707  0.83099256    -0.18800
H2350       H  0.68643956  0.06710829  0.86287123     0.18900
H2351       H  0.69926510  0.04594682  0.76571847     0.19000
F2352       F  0.71143928  0.00540147  0.79783240    -0.18800
C2353       C  0.60847499  0.04772687  0.72641840    -0.20200
C2354       C  0.59780913  0.03748392  0.75055844    -0.08300
C2355       C  0.60940640  0.04604657  0.77551845     0.30600
C2356       C  0.62938977  0.06568952  0.77628532    -0.20200
C2357       C  0.63964873  0.07651528  0.75242393    -0.08300
C2358       C  0.62942621  0.06691635  0.72730046     0.30600
F2359       F  0.63956256  0.07607123  0.70368701    -0.18800
H2360       H  0.60018064  0.04143773  0.70692615     0.18900
H2361       H  0.63613271  0.07308617  0.79592431     0.19000
F2362       F  0.60079978  0.03638822  0.79960024    -0.18800
C2363       C  0.35447471  0.15664617  0.76898848    -0.20200
C2364       C  0.37764210  0.17034276  0.77780922    -0.08300
C2365       C  0.37561983  0.19354947  0.79456615     0.30600
C2366       C  0.35009808  0.20319355  0.80211645    -0.20200
C2367       C  0.32705211  0.18930275  0.79308229    -0.08300
C2368       C  0.32926999  0.16597098  0.77670374     0.30600
F2369       F  0.30691970  0.15248286  0.76790547    -0.18800
H2370       H  0.35597921  0.13895311  0.75569999     0.18900
H2371       H  0.34828197  0.22097576  0.81522627     0.19000
F2372       F  0.39814773  0.20647889  0.80368366    -0.18800
C2373       C  0.40901289  0.22211978  0.74423628    -0.20200
C2374       C  0.40298891  0.19642355  0.73330144    -0.08300
C2375       C  0.37986493  0.19308637  0.71683658     0.30600
C2376       C  0.36225283  0.21496162  0.71232920    -0.20200
C2377       C  0.36751216  0.24048290  0.72419867    -0.08300
C2378       C  0.39136423  0.24421624  0.73970392     0.30600
F2379       F  0.39683675  0.26870361  0.75157087    -0.18800
H2380       H  0.42633025  0.22445456  0.75777721     0.18900
H2381       H  0.34438305  0.21186983  0.69969278     0.19000
F2382       F  0.37361108  0.16803689  0.70671453    -0.18800
C2383       C  0.44188005  0.17801541  0.68787336    -0.20200
C2384       C  0.44985661  0.15947782  0.70872106    -0.08300
C2385       C  0.47536445  0.14630888  0.70514105     0.30600
C2386       C  0.49056369  0.15022879  0.68174889    -0.20200
C2387       C  0.48480805  0.17181578  0.66380282    -0.08300
C2388       C  0.45922035  0.18481056  0.66652472     0.30600
F2389       F  0.45110877  0.20483574  0.64906432    -0.18800
H2390       H  0.42242471  0.18804332  0.68769673     0.18900
H2391       H  0.50759160  0.13664635  0.67853635     0.19000
F2392       F  0.48767298  0.13161616  0.72504175    -0.18800
C2393       C  0.38531263  0.10333385  0.83626305    -0.20200
C2394       C  0.37660122  0.07718882  0.82798383    -0.08300
C2395       C  0.38059193  0.06986584  0.80038747     0.30600
C2396       C  0.39305115  0.08789966  0.78224986    -0.20200
C2397       C  0.40157274  0.11400432  0.79061634    -0.08300
C2398       C  0.39754670  0.12138617  0.81803039     0.30600
F2399       F  0.40581544  0.14608414  0.82742232    -0.18800
H2400       H  0.38296293  0.10977089  0.85714076     0.18900
H2401       H  0.39514577  0.08175784  0.76124065     0.19000
F2402       F  0.37139450  0.04581009  0.79031210    -0.18800
C2403       C  0.46536962  0.10350886  0.77035262    -0.20200
C2404       C  0.44765159  0.10688224  0.74826192    -0.08300
C2405       C  0.44902897  0.08998063  0.72538487     0.30600
C2406       C  0.46857281  0.06932338  0.72483360    -0.20200
C2407       C  0.48640566  0.06585654  0.74714812    -0.08300
C2408       C  0.48501123  0.08338671  0.76970220     0.30600
F2409       F  0.50247038  0.08105768  0.79118915    -0.18800
H2410       H  0.46454293  0.11718060  0.78773956     0.18900
H2411       H  0.46929404  0.05570312  0.70743487     0.19000
F2412       F  0.43208267  0.09394352  0.70371817    -0.18800
C2413       C  0.71374259  0.47388825  0.27596067    -0.20200
C2414       C  0.68626399  0.48005225  0.28114796    -0.08300
C2415       C  0.67816605  0.48110489  0.30839507     0.30600
C2416       C  0.69722385  0.47658458  0.32956288    -0.20200
C2417       C  0.72475913  0.47135115  0.32409503    -0.08300
C2418       C  0.73255624  0.46948003  0.29700112     0.30600
F2419       F  0.75905683  0.46562424  0.29098411    -0.18800
H2420       H  0.72117490  0.47355945  0.25546434     0.18900
H2421       H  0.69061529  0.47889929  0.35019705     0.19000
F2422       F  0.65208376  0.48690429  0.31470489    -0.18800
C2423       C  0.58070620  0.53009439  0.25029137    -0.20200
C2424       C  0.58610114  0.52782146  0.22254383    -0.08300
C2425       C  0.56639810  0.53820130  0.20378324     0.30600
C2426       C  0.54343920  0.55249672  0.21268232    -0.20200
C2427       C  0.53929471  0.55622298  0.24037065    -0.08300
C2428       C  0.55756198  0.54409138  0.25912265     0.30600
F2429       F  0.55349554  0.54683829  0.28617290    -0.18800
H2430       H  0.59385554  0.52075583  0.26530335     0.18900
H2431       H  0.52966152  0.56183225  0.19796245     0.19000
F2432       F  0.56940109  0.53456266  0.17666645    -0.18800
C2433       C  0.56749319  0.39623944  0.19297838    -0.20200
C2434       C  0.57453795  0.41715228  0.21127890    -0.08300
C2435       C  0.56852104  0.41429569  0.23883925     0.30600
C2436       C  0.55423090  0.39165052  0.24760332    -0.20200
C2437       C  0.54588707  0.37143772  0.22908627    -0.08300
C2438       C  0.55304045  0.37363652  0.20173736     0.30600
F2439       F  0.54486731  0.35457426  0.18333227    -0.18800
H2440       H  0.57217425  0.39810076  0.17170041     0.18900
H2441       H  0.54822784  0.39091177  0.26852607     0.19000
F2442       F  0.57611132  0.43363421  0.25717424    -0.18800
C2443       C  0.82829983  0.81384494  0.01188387    -0.20200
C2444       C  0.81958375  0.78709840  0.00639620    -0.08300
C2445       C  0.79152865  0.78271699  0.00301868     0.30600
C2446       C  0.77316059  0.80486487  0.00271572    -0.20200
C2447       C  0.78219798  0.83167351  0.00621892    -0.08300
C2448       C  0.80984791  0.83594732  0.01175007     0.30600
F2449       F  0.81937338  0.86169348  0.01443720    -0.18800
H2450       H  0.84968028  0.81789029  0.01438641     0.18900
H2451       H  0.75190410  0.80127488  0.99861281     0.19000
F2452       F  0.78180418  0.75716216  0.99931057    -0.18800
C2453       C  0.95608218  0.67608833  0.90975852    -0.20200
C2454       C  0.95716754  0.69533967  0.93116760    -0.08300
C2455       C  0.97498574  0.71728780  0.92950700     0.30600
C2456       C  0.98955944  0.72100162  0.90604806    -0.20200
C2457       C  0.98670748  0.70312966  0.88376338    -0.08300
C2458       C  0.97062135  0.68005266  0.88608068     0.30600
F2459       F  0.96824064  0.66202704  0.86517051    -0.18800
H2460       H  0.94267514  0.65883726  0.91079904     0.18900
H2461       H  0.00119429  0.73942616  0.90443462     0.19000
F2462       F  0.97612572  0.73690167  0.94906864    -0.18800
C2463       C  0.92847959  0.71753631  0.05652573    -0.20200
C2464       C  0.92044008  0.73126535  0.03254350    -0.08300
C2465       C  0.93585978  0.75436930  0.02536349     0.30600
C2466       C  0.95760726  0.76369601  0.04188832    -0.20200
C2467       C  0.96533698  0.75010507  0.06590042    -0.08300
C2468       C  0.95051293  0.72668573  0.07281830     0.30600
F2469       F  0.95707754  0.71280374  0.09584172    -0.18800
H2470       H  0.91808158  0.69929457  0.06252916     0.18900
H2471       H  0.96809391  0.78200932  0.03614913     0.19000
F2472       F  0.93000463  0.76800515  0.00202994    -0.18800
C2473       C  0.84603813  0.19002723  0.02218977    -0.20200
C2474       C  0.83169311  0.21518085  0.02270817    -0.08300
C2475       C  0.80378039  0.21487081  0.02791248     0.30600
C2476       C  0.79061761  0.19000587  0.03247379    -0.20200
C2477       C  0.80478771  0.16483196  0.03132660    -0.08300
C2478       C  0.83268940  0.16508872  0.02593144     0.30600
F2479       F  0.84681986  0.14116942  0.02359578    -0.18800
H2480       H  0.86753259  0.18973789  0.01824273     0.18900
H2481       H  0.76903350  0.19023438  0.03593464     0.19000
F2482       F  0.78932701  0.23869055  0.02890746    -0.18800
C2483       C  0.96650621  0.26216463  0.96908263    -0.20200
C2484       C  0.95726250  0.28847957  0.96158521    -0.08300
C2485       C  0.97321234  0.30440806  0.94480457     0.30600
C2486       C  0.99785694  0.29379496  0.93526107    -0.20200
C2487       C  0.00669357  0.26726206  0.94251523    -0.08300
C2488       C  0.99105605  0.25175395  0.95990428     0.30600
F2489       F  0.99893386  0.22591796  0.96678907    -0.18800
H2490       H  0.95471263  0.24986998  0.98258827     0.18900
H2491       H  0.00927662  0.30559961  0.92101910     0.19000
F2492       F  0.96505098  0.33014579  0.93799746    -0.18800
C2493       C  0.93015615  0.25946860  0.05552684    -0.20200
C2494       C  0.91730103  0.28541356  0.05910025    -0.08300
C2495       C  0.92920880  0.30252927  0.07933921     0.30600
C2496       C  0.95124710  0.29319006  0.09613254    -0.20200
C2497       C  0.96339665  0.26707832  0.09262451    -0.08300
C2498       C  0.95251874  0.25052633  0.07176582     0.30600
F2499       F  0.96354170  0.22535992  0.06705446    -0.18800
H2500       H  0.92339247  0.24614514  0.03925702     0.18900
H2501       H  0.95894169  0.30656560  0.11196340     0.19000
F2502       F  0.92050814  0.32879371  0.08238756    -0.18800
C2503       C  0.69041197  0.48572399  0.67942852    -0.20200
C2504       C  0.70561549  0.48524896  0.70415311    -0.08300
C2505       C  0.73421162  0.48560532  0.70137036     0.30600
C2506       C  0.74669050  0.48674392  0.67543005    -0.20200
C2507       C  0.73154067  0.48718144  0.65079163    -0.08300
C2508       C  0.70297415  0.48616197  0.65343503     0.30600
F2509       F  0.68699773  0.48485358  0.63084689    -0.18800
H2510       H  0.66854851  0.48501979  0.68016365     0.18900
H2511       H  0.76856349  0.48702444  0.67458460     0.19000
F2512       F  0.75039329  0.48545311  0.72386887    -0.18800
C2513       C  0.58733586  0.39914258  0.81607092    -0.20200
C2514       C  0.59256226  0.42189994  0.79997556    -0.08300
C2515       C  0.57602100  0.42744320  0.77695297     0.30600
C2516       C  0.55367989  0.41172733  0.77130097    -0.20200
C2517       C  0.54875995  0.38878921  0.78688110    -0.08300
C2518       C  0.56572952  0.38217703  0.80916019     0.30600
F2519       F  0.56200155  0.35887167  0.82337353    -0.18800
H2520       H  0.60006766  0.39449601  0.83360304     0.18900
H2521       H  0.54156152  0.41600369  0.75322007     0.19000
F2522       F  0.58222415  0.44729406  0.75904208    -0.18800
C2523       C  0.60104567  0.52074007  0.75695186    -0.20200
C2524       C  0.61631381  0.52392607  0.78151968    -0.08300
C2525       C  0.60195895  0.53967175  0.80155992     0.30600
C2526       C  0.57559363  0.55241738  0.79660826    -0.20200
C2527       C  0.56054437  0.54939002  0.77188967    -0.08300
C2528       C  0.57463534  0.53319764  0.75215763     0.30600
F2529       F  0.56302236  0.52994540  0.72723374    -0.18800
H2530       H  0.60949645  0.50805670  0.74105656     0.18900
H2531       H  0.56717932  0.56543003  0.81228771     0.19000
F2532       F  0.61334364  0.54285476  0.82657806    -0.18800
C2533       C  0.76983383  0.34302650  0.82175244    -0.20200
C2534       C  0.75327599  0.35328773  0.84213545    -0.08300
C2535       C  0.72522185  0.35024032  0.84061060     0.30600
C2536       C  0.71372555  0.33711465  0.81834449    -0.20200
C2537       C  0.73028399  0.32672477  0.79766062    -0.08300
C2538       C  0.75861148  0.32948695  0.79976110     0.30600
F2539       F  0.77557062  0.31983102  0.78041923    -0.18800
H2540       H  0.79157028  0.34542359  0.82311895     0.18900
H2541       H  0.69190079  0.33543794  0.81717286     0.19000
F2542       F  0.70918091  0.35961519  0.86083069    -0.18800
C2543       C  0.79282951  0.27451257  0.86825542    -0.20200
C2544       C  0.82085134  0.27383260  0.86354635    -0.08300
C2545       C  0.83538339  0.29836686  0.86463318     0.30600
C2546       C  0.82221262  0.32284852  0.87085122    -0.20200
C2547       C  0.79446439  0.32339493  0.87598062    -0.08300
C2548       C  0.77966397  0.29922086  0.87453655     0.30600
F2549       F  0.75280731  0.29946877  0.87988133    -0.18800
H2550       H  0.78128322  0.25585978  0.86774806     0.18900
H2551       H  0.83368946  0.34155897  0.87166295     0.19000
F2552       F  0.86228443  0.29883476  0.85948083    -0.18800
C2553       C  0.72120842  0.42673330  0.86945603    -0.20200
C2554       C  0.74392620  0.41268559  0.85852576    -0.08300
C2555       C  0.74696536  0.41698889  0.83000982     0.30600
C2556       C  0.72836066  0.43344165  0.81371941    -0.20200
C2557       C  0.70526577  0.44711968  0.82448760    -0.08300
C2558       C  0.70265813  0.44326099  0.85320694     0.30600
F2559       F  0.68167341  0.45566970  0.86603283    -0.18800
H2560       H  0.71716437  0.42433062  0.89081051     0.18900
H2561       H  0.73242788  0.43540009  0.79241908     0.19000
F2562       F  0.76853784  0.40536408  0.81748660    -0.18800
C2563       C  0.83357744  0.36289065  0.93598438    -0.20200
C2564       C  0.80765774  0.35285459  0.92890631    -0.08300
C2565       C  0.79972810  0.32940125  0.94344006     0.30600
C2566       C  0.81674341  0.31664490  0.96358882    -0.20200
C2567       C  0.84320142  0.32577085  0.97006153    -0.08300
C2568       C  0.85077092  0.34992771  0.95606268     0.30600
F2569       F  0.87503621  0.36138068  0.96184473    -0.18800
H2570       H  0.84082510  0.38075130  0.92564219     0.18900
H2571       H  0.80839667  0.30002001  0.97473398     0.19000
F2572       F  0.77481748  0.31895922  0.93862343    -0.18800
C2573       C  0.78061748  0.40694839  0.94678420    -0.20200
C2574       C  0.78114170  0.41309831  0.91906659    -0.08300
C2575       C  0.79011870  0.43855738  0.91042267     0.30600
C2576       C  0.79726300  0.45813945  0.92973983    -0.20200
C2577       C  0.79576528  0.45200859  0.95740138    -0.08300
C2578       C  0.78895052  0.42587670  0.96582116     0.30600
F2579       F  0.78644880  0.42014078  0.99260087    -0.18800
H2580       H  0.77348362  0.38741132  0.95376845     0.18900
H2581       H  0.80180688  0.47864012  0.92325895     0.19000
F2582       F  0.79165641  0.44451792  0.88364901    -0.18800
C2583       C  0.73863107  0.65036519  0.81738909    -0.20200
C2584       C  0.76654272  0.64414603  0.81792271    -0.08300
C2585       C  0.78099515  0.64544206  0.79375524     0.30600
C2586       C  0.76796415  0.65370896  0.76966944    -0.20200
C2587       C  0.74018246  0.66037400  0.76911928    -0.08300
C2588       C  0.72549713  0.65848892  0.79318559     0.30600
F2589       F  0.69904722  0.66644242  0.79371385    -0.18800
H2590       H  0.72729256  0.65005336  0.83598035     0.18900
H2591       H  0.77972456  0.65550231  0.75144193     0.19000
F2592       F  0.80785902  0.63923815  0.79358079    -0.18800
C2593       C  0.77284970  0.69995521  0.85418562    -0.20200
C2594       C  0.79629234  0.68436819  0.84921422    -0.08300
C2595       C  0.81467879  0.69292936  0.82983607     0.30600
C2596       C  0.80907697  0.71660412  0.81493397    -0.20200
C2597       C  0.78531071  0.73186184  0.81973305    -0.08300
C2598       C  0.76745628  0.72367845  0.83976496     0.30600
F2599       F  0.74452886  0.73836472  0.84493566    -0.18800
H2600       H  0.75813417  0.69276799  0.86841936     0.18900
H2601       H  0.82346896  0.72337247  0.80016541     0.19000
F2602       F  0.83722427  0.67770129  0.82461345    -0.18800
C2603       C  0.73061251  0.59630646  0.86541666    -0.20200
C2604       C  0.75638323  0.59543323  0.85391747    -0.08300
C2605       C  0.76262239  0.57573362  0.83419755     0.30600
C2606       C  0.74322962  0.55692216  0.82608664    -0.20200
C2607       C  0.71728305  0.55795016  0.83718563    -0.08300
C2608       C  0.71100083  0.57767405  0.85694147     0.30600
F2609       F  0.68624231  0.57829745  0.86842587    -0.18800
H2610       H  0.72563752  0.61170020  0.88050913     0.18900
H2611       H  0.74832886  0.54147933  0.81109356     0.19000
F2612       F  0.78753383  0.57467917  0.82300985    -0.18800
C2613       C  0.81811387  0.68946420  0.90851079    -0.20200
C2614       C  0.81874998  0.66077333  0.90510379    -0.08300
C2615       C  0.83602285  0.64568141  0.92284274     0.30600
C2616       C  0.85008552  0.65866023  0.94419051    -0.20200
C2617       C  0.84856659  0.68726767  0.94812490    -0.08300
C2618       C  0.83359538  0.70257454  0.92869760     0.30600
F2619       F  0.83501518  0.73020151  0.92767149    -0.18800
H2620       H  0.80568836  0.70244640  0.89579001     0.18900
H2621       H  0.86274820  0.64622953  0.95757884     0.19000
F2622       F  0.84013259  0.61839604  0.91928666    -0.18800
C2623       C  0.79074845  0.57428362  0.90335421    -0.20200
C2624       C  0.78750485  0.60247391  0.90830877    -0.08300
C2625       C  0.78026175  0.61161939  0.93432736     0.30600
C2626       C  0.77631034  0.59261588  0.95493826    -0.20200
C2627       C  0.77862368  0.56451778  0.94939833    -0.08300
C2628       C  0.78581139  0.55541781  0.92355660     0.30600
F2629       F  0.78795911  0.52828361  0.91787351    -0.18800
H2630       H  0.79656196  0.56681730  0.88353241     0.18900
H2631       H  0.77076726  0.59972404  0.97497641     0.19000
F2632       F  0.77599067  0.63862338  0.93952781    -0.18800
C2633       C  0.69194303  0.68848566  0.16415870    -0.20200
C2634       C  0.71594067  0.67665685  0.15485394    -0.08300
C2635       C  0.73796719  0.67169756  0.17261784     0.30600
C2636       C  0.73578141  0.67811899  0.19976987    -0.20200
C2637       C  0.71109042  0.68770531  0.20946802    -0.08300
C2638       C  0.68932472  0.69371234  0.19169824     0.30600
F2639       F  0.66505470  0.70238417  0.20133017    -0.18800
H2640       H  0.67491358  0.69208382  0.15041777     0.18900
H2641       H  0.75210636  0.67224627  0.21365644     0.19000
F2642       F  0.76010130  0.65732953  0.16451945    -0.18800
C2643       C  0.74363025  0.72678196  0.11399393    -0.20200
C2644       C  0.75357819  0.69999141  0.11606643    -0.08300
C2645       C  0.78070288  0.69471021  0.12367632     0.30600
C2646       C  0.79704173  0.71612275  0.13142239    -0.20200
C2647       C  0.78641498  0.74270068  0.13137684    -0.08300
C2648       C  0.76015616  0.74831120  0.12146691     0.30600
F2649       F  0.74960613  0.77413737  0.12211759    -0.18800
H2650       H  0.72284971  0.73074210  0.10761573     0.18900
H2651       H  0.81714139  0.71180868  0.13966989     0.19000
F2652       F  0.79081885  0.66880020  0.12528897    -0.18800
C2653       C  0.69748771  0.61326766  0.15784923    -0.20200
C2654       C  0.69109425  0.62227660  0.13132952    -0.08300
C2655       C  0.67010532  0.60904420  0.11692850     0.30600
C2656       C  0.65660822  0.58692634  0.12836808    -0.20200
C2657       C  0.66351831  0.57764100  0.15448582    -0.08300
C2658       C  0.68383991  0.59121593  0.16931683     0.30600
F2659       F  0.69122522  0.58233408  0.19444734    -0.18800
H2660       H  0.71401951  0.62219114  0.16924446     0.18900
H2661       H  0.64102056  0.57664153  0.11666024     0.19000
F2662       F  0.66297900  0.61723090  0.09149578    -0.18800
C2663       C  0.76819598  0.68722375  0.05842132    -0.20200
C2664       C  0.76365991  0.66208149  0.07131736    -0.08300
C2665       C  0.78531949  0.64291904  0.07292136     0.30600
C2666       C  0.81072375  0.64913964  0.06243601    -0.20200
C2667       C  0.81546000  0.67482048  0.05109136    -0.08300
C2668       C  0.79386036  0.69372599  0.04890605     0.30600
F2669       F  0.79773699  0.71848591  0.03745583    -0.18800
H2670       H  0.75218421  0.70262404  0.05735299     0.18900
H2671       H  0.82692371  0.63395382  0.06334524     0.19000
F2672       F  0.78291325  0.61925861  0.08673453    -0.18800
C2673       C  0.71890777  0.61161329  0.05231445    -0.20200
C2674       C  0.72440393  0.61263767  0.08008444    -0.08300
C2675       C  0.73457221  0.58973168  0.09426334     0.30600
C2676       C  0.74102985  0.56623862  0.08001114    -0.20200
C2677       C  0.73677058  0.56577448  0.05203406    -0.08300
C2678       C  0.72487042  0.58792247  0.03818161     0.30600
F2679       F  0.72130711  0.58735478  0.01080112    -0.18800
H2680       H  0.71120446  0.62947621  0.04156010     0.18900
H2681       H  0.75049634  0.54900301  0.09043299     0.19000
F2682       F  0.74103734  0.59110594  0.12111422    -0.18800
C2683       C  0.79326410  0.31538641  0.20606423    -0.20200
C2684       C  0.79016686  0.29215677  0.18959380    -0.08300
C2685       C  0.77855322  0.29455450  0.16355351     0.30600
C2686       C  0.76895889  0.31983330  0.15458073    -0.20200
C2687       C  0.77151869  0.34304897  0.17114379    -0.08300
C2688       C  0.78448833  0.34092141  0.19662439     0.30600
F2689       F  0.78860072  0.36345855  0.21223033    -0.18800
H2690       H  0.80232129  0.31366671  0.22617228     0.18900
H2691       H  0.75873152  0.32122923  0.13501939     0.19000
F2692       F  0.77479112  0.27213808  0.14760130    -0.18800
C2693       C  0.73642613  0.38762290  0.22551088    -0.20200
C2694       C  0.72837873  0.37503299  0.20099083    -0.08300
C2695       C  0.71416585  0.35046665  0.20212355     0.30600
C2696       C  0.70987773  0.33771004  0.22700423    -0.20200
C2697       C  0.71990278  0.34886160  0.25157699    -0.08300
C2698       C  0.73250010  0.37460927  0.25060975     0.30600
F2699       F  0.74296034  0.38618913  0.27349577    -0.18800
H2700       H  0.74782433  0.40635843  0.22506699     0.18900
H2701       H  0.69982081  0.31818357  0.22679556     0.19000
F2702       F  0.70616563  0.33770560  0.17886964    -0.18800
C2703       C  0.68487224  0.42094554  0.15142006    -0.20200
C2704       C  0.71091916  0.42526479  0.16192523    -0.08300
C2705       C  0.71743932  0.45071736  0.17314336     0.30600
C2706       C  0.69696023  0.47009238  0.17753337    -0.20200
C2707       C  0.66980560  0.46386690  0.17129301    -0.08300
C2708       C  0.66464268  0.44076858  0.15489013     0.30600
F2709       F  0.64054938  0.43753318  0.14173318    -0.18800
H2710       H  0.68032135  0.40233266  0.14032373     0.18900
H2711       H  0.70194230  0.48893331  0.18803853     0.19000
F2712       F  0.74334714  0.45644371  0.18050948    -0.18800
C2713       C  0.77454778  0.36208316  0.09155301    -0.20200
C2714       C  0.78353304  0.36997246  0.11751588    -0.08300
C2715       C  0.81123616  0.36908983  0.12391784     0.30600
C2716       C  0.82977709  0.36055010  0.10445490    -0.20200
C2717       C  0.82100317  0.35218866  0.07841646    -0.08300
C2718       C  0.79298371  0.35287396  0.07220804     0.30600
F2719       F  0.78313670  0.34364006  0.04805484    -0.18800
H2720       H  0.75311169  0.36253242  0.08648754     0.18900
H2721       H  0.85113634  0.36057770  0.10972839     0.19000
F2722       F  0.82036929  0.37709496  0.14879927    -0.18800
C2723       C  0.77314050  0.43546304  0.10916337    -0.20200
C2724       C  0.74869542  0.42191854  0.11204774    -0.08300
C2725       C  0.72803953  0.42522987  0.09239147     0.30600
C2726       C  0.73210026  0.44194227  0.06990872    -0.20200
C2727       C  0.75690330  0.45523239  0.06670607    -0.08300
C2728       C  0.77736793  0.45188745  0.08679653     0.30600
F2729       F  0.80164254  0.46429734  0.08497405    -0.18800
H2730       H  0.78930205  0.43280273  0.12412423     0.18900
H2731       H  0.71596559  0.44422428  0.05489249     0.19000
F2732       F  0.70454520  0.41145314  0.09426227    -0.18800
C2733       C  0.20768761  0.16645796  0.99733891    -0.20200
C2734       C  0.23337673  0.16342271  0.00942379    -0.08300
C2735       C  0.24461888  0.18558248  0.02350451     0.30600
C2736       C  0.23021199  0.21045187  0.02565737    -0.20200
C2737       C  0.20392751  0.21357906  0.01427093    -0.08300
C2738       C  0.19277554  0.19090456  0.00018230     0.30600
F2739       F  0.16707817  0.19160903  0.99006787    -0.18800
H2740       H  0.19878128  0.14943679  0.98645795     0.18900
H2741       H  0.23980550  0.22722517  0.03624351     0.19000
F2742       F  0.26958088  0.18302190  0.03522139    -0.18800
C2743       C  0.07322926  0.26381995  0.06757054    -0.20200
C2744       C  0.07925579  0.29157171  0.07189993    -0.08300
C2745       C  0.06091322  0.30768119  0.08693833     0.30600
C2746       C  0.03772303  0.29589959  0.09822214    -0.20200
C2747       C  0.03233170  0.26784078  0.09467665    -0.08300
C2748       C  0.05029847  0.25205496  0.07888976     0.30600
F2749       F  0.04610248  0.22490510  0.07512694    -0.18800
H2750       H  0.08647769  0.25121715  0.05524470     0.18900
H2751       H  0.02464240  0.30840630  0.11081155     0.19000
F2752       F  0.06532683  0.33479907  0.09050738    -0.18800
C2753       C  0.10714894  0.26053917  0.97839889    -0.20200
C2754       C  0.11968275  0.28605292  0.97452730    -0.08300
C2755       C  0.10766417  0.30353223  0.95467129     0.30600
C2756       C  0.08586888  0.29466762  0.93800419    -0.20200
C2757       C  0.07418991  0.26894900  0.94174365    -0.08300
C2758       C  0.08496463  0.25213643  0.96238404     0.30600
F2759       F  0.07416996  0.22724169  0.96690842    -0.18800
H2760       H  0.11383436  0.24724859  0.99474053     0.18900
H2761       H  0.07790694  0.30806642  0.92225297     0.19000
F2762       F  0.11609605  0.32960289  0.95189919    -0.18800
C2763       C  0.35263987  0.51460808  0.69112901    -0.20200
C2764       C  0.33804558  0.51350473  0.71551458    -0.08300
C2765       C  0.30945875  0.51104604  0.71281543     0.30600
C2766       C  0.29647904  0.50871146  0.68717165    -0.20200
C2767       C  0.31103671  0.50941407  0.66301310    -0.08300
C2768       C  0.33934339  0.51291487  0.66531874     0.30600
F2769       F  0.35411322  0.51513370  0.64254471    -0.18800
H2770       H  0.37442438  0.51658397  0.69200741     0.18900
H2771       H  0.27463904  0.50723721  0.68610201     0.19000
F2772       F  0.29354896  0.51204133  0.73494295    -0.18800
C2773       C  0.45177743  0.40937768  0.81204623    -0.20200
C2774       C  0.44055401  0.42661333  0.79189831    -0.08300
C2775       C  0.45162907  0.42588333  0.76583560     0.30600
C2776       C  0.47343831  0.40846336  0.76010223    -0.20200
C2777       C  0.48446809  0.39094183  0.78001105    -0.08300
C2778       C  0.47362746  0.39161014  0.80616923     0.30600
F2779       F  0.48392390  0.37490318  0.82581452    -0.18800
H2780       H  0.44418634  0.41041733  0.83249995     0.18900
H2781       H  0.48139164  0.40813417  0.73976509     0.19000
F2782       F  0.44145145  0.44240637  0.74596702    -0.18800
C2783       C  0.43364391  0.56579778  0.79164051    -0.20200
C2784       C  0.43194978  0.53798169  0.79806846    -0.08300
C2785       C  0.45836533  0.52549196  0.80362240     0.30600
C2786       C  0.48261795  0.53556424  0.79235590    -0.20200
C2787       C  0.48332713  0.56212495  0.78219749    -0.08300
C2788       C  0.45926122  0.57806175  0.78763560     0.30600
F2789       F  0.46061093  0.60560256  0.79045921    -0.18800
H2790       H  0.41548093  0.57849383  0.79158243     0.18900
H2791       H  0.50105109  0.52328055  0.79327115     0.19000
F2792       F  0.46168356  0.50528968  0.82222321    -0.18800
C2793       C  0.19296766  0.81653377  0.98793594    -0.20200
C2794       C  0.16628917  0.81362319  0.99740520    -0.08300
C2795       C  0.15373078  0.83711973  0.00903542     0.30600
C2796       C  0.16812097  0.86151407  0.01278445    -0.20200
C2797       C  0.19495112  0.86370251  0.00420846    -0.08300
C2798       C  0.20693342  0.84117814  0.99105155     0.30600
F2799       F  0.23304585  0.84234447  0.98311526    -0.18800
H2800       H  0.20381452  0.79948367  0.97900349     0.18900
H2801       H  0.15849746  0.87866932  0.02299369     0.19000
F2802       F  0.12760590  0.83688129  0.01693318    -0.18800
C2803       C  0.07536058  0.72170798  0.05979885    -0.20200
C2804       C  0.08445600  0.73808901  0.03820875    -0.08300
C2805       C  0.06697456  0.76050755  0.03108145     0.30600
C2806       C  0.04343549  0.76733854  0.04629712    -0.20200
C2807       C  0.03554958  0.75176036  0.06880693    -0.08300
C2808       C  0.05199897  0.72864300  0.07505316     0.30600
F2809       F  0.04540959  0.71248339  0.09613953    -0.18800
H2810       H  0.08609594  0.70296394  0.06488647     0.18900
H2811       H  0.03157755  0.78533959  0.04071037     0.19000
F2812       F  0.07222445  0.77579773  0.00897859    -0.18800
C2813       C  0.06385161  0.68352695  0.91383264    -0.20200
C2814       C  0.06976207  0.70607713  0.93038054    -0.08300
C2815       C  0.06486615  0.73262656  0.92090723     0.30600
C2816       C  0.05313115  0.73658775  0.89539658    -0.20200
C2817       C  0.04579056  0.71405995  0.87923538    -0.08300
C2818       C  0.05160244  0.68744068  0.88846737     0.30600
F2819       F  0.04432831  0.66532100  0.87339200    -0.18800
H2820       H  0.06855629  0.66298143  0.92079128     0.18900
H2821       H  0.04774908  0.75717309  0.88958397     0.19000
F2822       F  0.07158949  0.75462537  0.93639537    -0.18800
C2823       C  0.25021461  0.72613759  0.88481759    -0.20200
C2824       C  0.23463017  0.70250057  0.88370775    -0.08300
C2825       C  0.20942160  0.70314221  0.87000513     0.30600
C2826       C  0.20092805  0.72678553  0.85601095    -0.20200
C2827       C  0.21784808  0.74956394  0.85511404    -0.08300
C2828       C  0.24221490  0.74934313  0.87022502     0.30600
F2829       F  0.25848367  0.77146898  0.87051412    -0.18800
H2830       H  0.26941068  0.72604969  0.89579629     0.18900
H2831       H  0.18186392  0.72685150  0.84480318     0.19000
F2832       F  0.19376667  0.68058369  0.86903239    -0.18800
C2833       C  0.28514143  0.68957610  0.84362996    -0.20200
C2834       C  0.27168620  0.66617862  0.85195522    -0.08300
C2835       C  0.26305435  0.64687790  0.83262400     0.30600
C2836       C  0.26857454  0.65061210  0.80533751    -0.20200
C2837       C  0.28214716  0.67398540  0.79694683    -0.08300
C2838       C  0.29000350  0.69376898  0.81624433     0.30600
F2839       F  0.30382918  0.71625771  0.80889865    -0.18800
H2840       H  0.29259491  0.70414942  0.85842511     0.18900
H2841       H  0.26250426  0.63509884  0.79077179     0.19000
F2842       F  0.24952861  0.62432292  0.84028043    -0.18800
C2843       C  0.22259242  0.69621613  0.95380864    -0.20200
C2844       C  0.21812537  0.67319758  0.93696552    -0.08300
C2845       C  0.19219584  0.66171790  0.93762531     0.30600
C2846       C  0.17153848  0.67321639  0.95385128    -0.20200
C2847       C  0.17509845  0.69754444  0.96933770    -0.08300
C2848       C  0.20188064  0.70764193  0.97028546     0.30600
F2849       F  0.20852763  0.72804306  0.98778140    -0.18800
H2850       H  0.24240014  0.70538877  0.95433728     0.18900
H2851       H  0.15270418  0.66237206  0.95439814     0.19000
F2852       F  0.18626873  0.63975314  0.92187641    -0.18800
C2853       C  0.33688903  0.60509775  0.86057480    -0.20200
C2854       C  0.33219293  0.57664750  0.86214305    -0.08300
C2855       C  0.30890924  0.56938744  0.87721955     0.30600
C2856       C  0.29039477  0.58927444  0.88743384    -0.20200
C2857       C  0.29435067  0.61760216  0.88478126    -0.08300
C2858       C  0.31877630  0.62500826  0.87197536     0.30600
F2859       F  0.32567608  0.65171552  0.87089850    -0.18800
H2860       H  0.35468945  0.61218143  0.85046248     0.18900
H2861       H  0.27251847  0.58201778  0.89710282     0.19000
F2862       F  0.30376753  0.54294140  0.88306090    -0.18800
C2863       C  0.27387237  0.61402043  0.95655319    -0.20200
C2864       C  0.25419554  0.61684022  0.93605538    -0.08300
C2865       C  0.23483951  0.59654601  0.93177227     0.30600
C2866       C  0.23527900  0.57338681  0.94800331    -0.20200
C2867       C  0.25537568  0.57012090  0.96817591    -0.08300
C2868       C  0.27457959  0.59069589  0.97258946     0.30600
F2869       F  0.29390523  0.58831212  0.99240382    -0.18800
H2870       H  0.28904953  0.62954832  0.95961600     0.18900
H2871       H  0.22063164  0.55751495  0.94410240     0.19000
F2872       F  0.21716687  0.59798050  0.91042519    -0.18800
C2873       C  0.23671458  0.29433737  0.84492774    -0.20200
C2874       C  0.25878815  0.27581199  0.84532395    -0.08300
C2875       C  0.28437385  0.28479102  0.85396877     0.30600
C2876       C  0.28814386  0.31247162  0.85999343    -0.20200
C2877       C  0.26635034  0.33117076  0.85815095    -0.08300
C2878       C  0.24036176  0.32180049  0.85173587     0.30600
F2879       F  0.21901690  0.33959111  0.85011400    -0.18800
H2880       H  0.21690519  0.28774630  0.83802386     0.18900
H2881       H  0.30821311  0.31962838  0.86520297     0.19000
F2882       F  0.30607424  0.26737821  0.85424622    -0.18800
C2883       C  0.31981908  0.36386561  0.80824851    -0.20200
C2884       C  0.29278969  0.36597650  0.81666213    -0.08300
C2885       C  0.27228243  0.35633168  0.79898784     0.30600
C2886       C  0.27871526  0.34301670  0.77466343    -0.20200
C2887       C  0.30566790  0.34021354  0.76651335    -0.08300
C2888       C  0.32618226  0.35171249  0.78307591     0.30600
F2889       F  0.35244576  0.35012508  0.77550169    -0.18800
H2890       H  0.33597803  0.37126551  0.82133378     0.18900
H2891       H  0.26249216  0.33508765  0.76196016     0.19000
F2892       F  0.24582469  0.35981328  0.80525140    -0.18800
C2893       C  0.22107752  0.37452540  0.90845475    -0.20200
C2894       C  0.24790520  0.36491784  0.90645393    -0.08300
C2895       C  0.25806142  0.34657859  0.92622903     0.30600
C2896       C  0.24163945  0.33828039  0.94773117    -0.20200
C2897       C  0.21462315  0.34766231  0.94949195    -0.08300
C2898       C  0.20453281  0.36580675  0.92949470     0.30600
F2899       F  0.17861810  0.37533877  0.93055716    -0.18800
H2900       H  0.21284854  0.38867025  0.89348443     0.18900
H2901       H  0.24975325  0.32402853  0.96264033     0.19000
F2902       F  0.28388108  0.33683868  0.92478246    -0.18800
C2903       C  0.33687286  0.46405815  0.85256046    -0.20200
C2904       C  0.34001434  0.46775483  0.82446646    -0.08300
C2905       C  0.32776947  0.44804243  0.80731411     0.30600
C2906       C  0.30980639  0.42871247  0.81765103    -0.20200
C2907       C  0.30653416  0.42516710  0.84580963    -0.08300
C2908       C  0.32118407  0.44305413  0.86303175     0.30600
F2909       F  0.32277236  0.43921468  0.89007606    -0.18800
H2910       H  0.34813914  0.47651184  0.86689156     0.18900
H2911       H  0.29935549  0.41580492  0.80323115     0.19000
F2912       F  0.33506250  0.44522754  0.78109312    -0.18800
C2913       C  0.25321462  0.44027749  0.90413257    -0.20200
C2914       C  0.27408217  0.42048540  0.90419794    -0.08300
C2915       C  0.29002548  0.41673757  0.92784066     0.30600
C2916       C  0.28650470  0.43393491  0.95028407    -0.20200
C2917       C  0.26591672  0.45406014  0.95018944    -0.08300
C2918       C  0.24886358  0.45673876  0.92711058     0.30600
F2919       F  0.22830897  0.47551686  0.92663178    -0.18800
H2920       H  0.23987034  0.44242876  0.88657489     0.18900
H2921       H  0.29951324  0.43115755  0.96801247     0.19000
F2922       F  0.30937112  0.39667936  0.92890764    -0.18800
C2923       C  0.30817606  0.48085772  0.27287733    -0.20200
C2924       C  0.33587515  0.48452203  0.27882871    -0.08300
C2925       C  0.34357656  0.49448941  0.30459414     0.30600
C2926       C  0.32397248  0.50009591  0.32402832    -0.20200
C2927       C  0.29638842  0.49602962  0.31807023    -0.08300
C2928       C  0.28869345  0.48634256  0.29235197     0.30600
F2929       F  0.26222030  0.48186087  0.28630985    -0.18800
H2930       H  0.30147438  0.47384321  0.25305924     0.18900
H2931       H  0.33042664  0.50653729  0.34410206     0.19000
F2932       F  0.37007043  0.49772421  0.31136643    -0.18800
C2933       C  0.46119138  0.39778215  0.17767523    -0.20200
C2934       C  0.45663651  0.42145598  0.19328565    -0.08300
C2935       C  0.46782574  0.42335135  0.21969203     0.30600
C2936       C  0.48302923  0.40177472  0.23023832    -0.20200
C2937       C  0.48664451  0.37787113  0.21503196    -0.08300
C2938       C  0.47612301  0.37588715  0.18857480     0.30600
F2939       F  0.47931580  0.35249550  0.17391280    -0.18800
H2940       H  0.45228241  0.39600398  0.15752677     0.18900
H2941       H  0.49059955  0.40297595  0.25098160     0.19000
F2942       F  0.46210389  0.44489561  0.23623710    -0.18800
C2943       C  0.43679133  0.52189701  0.24616392    -0.20200
C2944       C  0.42662391  0.52284929  0.21898236    -0.08300
C2945       C  0.44020250  0.54126220  0.20181437     0.30600
C2946       C  0.46161173  0.55833083  0.21164507    -0.20200
C2947       C  0.47090384  0.55780349  0.23900661    -0.08300
C2948       C  0.45793222  0.53906209  0.25597225     0.30600
F2949       F  0.46602733  0.53689689  0.28230583    -0.18800
H2950       H  0.42902233  0.50719608  0.26015992     0.18900
H2951       H  0.47079051  0.57234212  0.19772499     0.19000
F2952       F  0.43294466  0.54264774  0.17518548    -0.18800
C2953       C  0.20567362  0.29576596  0.18022597    -0.20200
C2954       C  0.22010530  0.27074237  0.17977888    -0.08300
C2955       C  0.24616206  0.26999202  0.16870679     0.30600
C2956       C  0.25746895  0.29390941  0.15839516    -0.20200
C2957       C  0.24286527  0.31882466  0.15865820    -0.08300
C2958       C  0.21702556  0.31964440  0.17005255     0.30600
F2959       F  0.20288998  0.34361181  0.17150070    -0.18800
H2960       H  0.18527020  0.29664272  0.18792107     0.18900
H2961       H  0.27751782  0.29303208  0.14987690     0.19000
F2962       F  0.25995130  0.24586015  0.16636832    -0.18800
C2963       C  0.30971721  0.33303129  0.18874309    -0.20200
C2964       C  0.28542307  0.34799233  0.18947587    -0.08300
C2965       C  0.26855521  0.34557168  0.21195659     0.30600
C2966       C  0.27541394  0.32733391  0.23284248    -0.20200
C2967       C  0.29906438  0.31104178  0.23142541    -0.08300
C2968       C  0.31648040  0.31457286  0.20931424     0.30600
F2969       F  0.33989561  0.29987270  0.20713060    -0.18800
H2970       H  0.32251468  0.33412820  0.17116630     0.18900
H2971       H  0.26196395  0.32559389  0.24983505     0.19000
F2972       F  0.24469758  0.35969739  0.21287625    -0.18800
C2973       C  0.32985822  0.40437703  0.14520151    -0.20200
C2974       C  0.30426725  0.40247325  0.15737067    -0.08300
C2975       C  0.29859534  0.42247659  0.17742464     0.30600
C2976       C  0.31795635  0.44252385  0.18547016    -0.20200
C2977       C  0.34474662  0.44306185  0.17524200    -0.08300
C2978       C  0.34940906  0.42417508  0.15351082     0.30600
F2979       F  0.37213629  0.42564299  0.13867543    -0.18800
H2980       H  0.33490149  0.39033384  0.12893710     0.18900
H2981       H  0.31159874  0.45795940  0.19989893     0.19000
F2982       F  0.27385589  0.42318906  0.18894900    -0.18800
C2983       C  0.24115684  0.32864217  0.08106242    -0.20200
C2984       C  0.23186222  0.34513721  0.10266375    -0.08300
C2985       C  0.20379841  0.35096711  0.10303413     0.30600
C2986       C  0.18576695  0.34021497  0.08301150    -0.20200
C2987       C  0.19475475  0.32312350  0.06150088    -0.08300
C2988       C  0.22320550  0.31812483  0.06078665     0.30600
F2989       F  0.23401779  0.30329909  0.04018694    -0.18800
H2990       H  0.26258503  0.32387203  0.07979748     0.18900
H2991       H  0.16466979  0.34618303  0.08411226     0.19000
F2992       F  0.19371037  0.36777072  0.12250365    -0.18800
C2993       C  0.28325314  0.42241317  0.06458878    -0.20200
C2994       C  0.26098391  0.44064039  0.06518624    -0.08300
C2995       C  0.24109824  0.43778854  0.08489495     0.30600
C2996       C  0.24381776  0.41716800  0.10406805    -0.20200
C2997       C  0.26620817  0.39929796  0.10359940    -0.08300
C2998       C  0.28577513  0.40160187  0.08365982     0.30600
F2999       F  0.30703328  0.38369489  0.08256731    -0.18800
H3000       H  0.29863311  0.42432520  0.04934926     0.18900
H3001       H  0.22867168  0.41531557  0.11955807     0.19000
F3002       F  0.21980534  0.45563120  0.08639105    -0.18800
C3003       C  0.23833856  0.70026615  0.15263696    -0.20200
C3004       C  0.22599045  0.68219885  0.17036637    -0.08300
C3005       C  0.21236372  0.69252493  0.19299276     0.30600
C3006       C  0.21159778  0.72070746  0.19806387    -0.20200
C3007       C  0.22457517  0.73890267  0.18065772    -0.08300
C3008       C  0.23791665  0.72831709  0.15775003     0.30600
F3009       F  0.25145071  0.74483737  0.14079106    -0.18800
H3010       H  0.24961698  0.69236520  0.13557875     0.18900
H3011       H  0.20090958  0.72826594  0.21565354     0.19000
F3012       F  0.20034768  0.67526080  0.21035963    -0.18800
C3013       C  0.25714496  0.62689351  0.22947273    -0.20200
C3014       C  0.26006381  0.64617773  0.20889119    -0.08300
C3015       C  0.27500321  0.67001172  0.21414192     0.30600
C3016       C  0.28766856  0.67369090  0.23947951    -0.20200
C3017       C  0.28609341  0.65333690  0.25924403    -0.08300
C3018       C  0.27037405  0.63018019  0.25431355     0.30600
F3019       F  0.26932598  0.60987989  0.27294815    -0.18800
H3020       H  0.24577149  0.60843617  0.22572324     0.18900
H3021       H  0.30046021  0.69122841  0.24287332     0.19000
F3022       F  0.27945532  0.68842495  0.19432376    -0.18800
C3023       C  0.22138630  0.65431296  0.09725726    -0.20200
C3024       C  0.20890942  0.64894928  0.12172519    -0.08300
C3025       C  0.18154376  0.65597957  0.12509621     0.30600
C3026       C  0.16669380  0.66795888  0.10375321    -0.20200
C3027       C  0.17924357  0.67400906  0.07913424    -0.08300
C3028       C  0.20706883  0.66724552  0.07636015     0.30600
F3029       F  0.22124161  0.67441186  0.05429816    -0.18800
H3030       H  0.24275975  0.64975964  0.09485018     0.18900
H3031       H  0.14545872  0.67262304  0.10662389     0.19000
F3032       F  0.16928288  0.65134244  0.14902474    -0.18800
C3033       C  0.32536176  0.58324597  0.18008474    -0.20200
C3034       C  0.31872252  0.55575712  0.18439270    -0.08300
C3035       C  0.29123556  0.54885719  0.18661718     0.30600
C3036       C  0.27098127  0.56849053  0.18173655    -0.20200
C3037       C  0.27778859  0.59540666  0.17587027    -0.08300
C3038       C  0.30502971  0.60306044  0.17622175     0.30600
F3039       F  0.31194522  0.62922863  0.17081988    -0.18800
H3040       H  0.34627953  0.58918203  0.17849016     0.18900
H3041       H  0.24992827  0.56268735  0.18232762     0.19000
F3042       F  0.28383495  0.52329072  0.19363512    -0.18800
C3043       C  0.22140263  0.58137741  0.11089161    -0.20200
C3044       C  0.24417945  0.59486031  0.12130763    -0.08300
C3045       C  0.26956050  0.58931210  0.10982171     0.30600
C3046       C  0.27213378  0.57008800  0.08884404    -0.20200
C3047       C  0.24942340  0.55623832  0.07848550    -0.08300
C3048       C  0.22388611  0.56223808  0.08974149     0.30600
F3049       F  0.20125633  0.54958698  0.08049380    -0.18800
H3050       H  0.20165336  0.58552419  0.11934711     0.18900
H3051       H  0.29195301  0.56643330  0.08037073     0.19000
F3052       F  0.29175531  0.60327940  0.11805727    -0.18800
C3053       C  0.99017371  0.16841659  0.19615153    -0.20200
C3054       C  0.00374528  0.17767865  0.21973753    -0.08300
C3055       C  0.01623817  0.20330952  0.21899129     0.30600
C3056       C  0.01472908  0.21947848  0.19541181    -0.20200
C3057       C  0.00039798  0.21069654  0.17206352    -0.08300
C3058       C  0.98849924  0.18467504  0.17257295     0.30600
F3059       F  0.97571736  0.17475525  0.15012039    -0.18800
H3060       H  0.98024029  0.14883262  0.19628743     0.18900
H3061       H  0.02450151  0.23914776  0.19541668     0.19000
F3062       F  0.02974324  0.21273060  0.24125584    -0.18800
C3063       C  0.05914774  0.04110503  0.30208459    -0.20200
C3064       C  0.05459281  0.02994342  0.27571733    -0.08300
C3065       C  0.04038213  0.04759124  0.25754449     0.30600
C3066       C  0.03071347  0.07410900  0.26529474    -0.20200
C3067       C  0.03564899  0.08590900  0.29135446    -0.08300
C3068       C  0.04975476  0.06808998  0.30981138     0.30600
F3069       F  0.05415583  0.07656324  0.33574001    -0.18800
H3070       H  0.07098530  0.02924866  0.31665171     0.18900
H3071       H  0.01840412  0.08497412  0.25050546     0.19000
F3072       F  0.03641175  0.03942280  0.23144067    -0.18800
C3073       C  0.89186564  0.04538449  0.33702382    -0.20200
C3074       C  0.89334437  0.02617572  0.31581912    -0.08300
C3075       C  0.91666400  0.02477686  0.29998873     0.30600
C3076       C  0.93776046  0.04260177  0.30485879    -0.20200
C3077       C  0.93620037  0.06245775  0.32547313    -0.08300
C3078       C  0.91323456  0.06336678  0.34199911     0.30600
F3079       F  0.91121557  0.08192748  0.36246288    -0.18800
H3080       H  0.87375920  0.04708286  0.34903321     0.18900
H3081       H  0.95455306  0.04201465  0.29107453     0.19000
F3082       F  0.91781188  0.00862695  0.27761613    -0.18800
C3083       C  0.73213696  0.27602835  0.50728819    -0.20200
C3084       C  0.73251698  0.30480777  0.50951814    -0.08300
C3085       C  0.70742359  0.31900814  0.51130123     0.30600
C3086       C  0.68292470  0.30468342  0.51085518    -0.20200
C3087       C  0.68282597  0.27604559  0.50843849    -0.08300
C3088       C  0.70765710  0.26183714  0.50683837     0.30600
F3089       F  0.70817938  0.23409629  0.50550099    -0.18800
H3090       H  0.75090853  0.26437228  0.50630275     0.18900
H3091       H  0.66392120  0.31589890  0.51240144     0.19000
F3092       F  0.70641778  0.34673707  0.51267812    -0.18800
C3093       C  0.79446881  0.44163649  0.44111348    -0.20200
C3094       C  0.81588461  0.42258077  0.43744413    -0.08300
C3095       C  0.82961945  0.42287072  0.41260482     0.30600
C3096       C  0.82074395  0.44032145  0.39149826    -0.20200
C3097       C  0.79812248  0.45779948  0.39476357    -0.08300
C3098       C  0.78582779  0.45909627  0.42020234     0.30600
F3099       F  0.76386497  0.47559906  0.42410898    -0.18800
H3100       H  0.78320693  0.44211883  0.45971249     0.18900
H3101       H  0.83044492  0.43892908  0.37200143     0.19000
F3102       F  0.85121426  0.40594528  0.40848735    -0.18800
C3103       C  0.77394902  0.40916465  0.53732042    -0.20200
C3104       C  0.79968224  0.39707215  0.54350083    -0.08300
C3105       C  0.81607296  0.41219553  0.56204805     0.30600
C3106       C  0.80657687  0.43694371  0.57450013    -0.20200
C3107       C  0.78074376  0.44856550  0.56848419    -0.08300
C3108       C  0.76448591  0.43376671  0.54986059     0.30600
F3109       F  0.73894730  0.44285248  0.54405662    -0.18800
H3110       H  0.76096075  0.39972464  0.52220024     0.18900
H3111       H  0.81948729  0.44693319  0.58937635     0.19000
F3112       F  0.84168676  0.40350604  0.56796869    -0.18800
C3113       C  0.02548411  0.22404589  0.84187011    -0.20200
C3114       C  0.03776794  0.21227908  0.86488545    -0.08300
C3115       C  0.04726427  0.18511134  0.86376675     0.30600
C3116       C  0.04404264  0.16977576  0.83985973    -0.20200
C3117       C  0.03113730  0.18130397  0.81681930    -0.08300
C3118       C  0.02233648  0.20888345  0.81795391     0.30600
F3119       F  0.01126925  0.22144745  0.79583420    -0.18800
H3120       H  0.01826275  0.24508400  0.84259384     0.18900
H3121       H  0.05100555  0.14865670  0.83954162     0.19000
F3122       F  0.05877615  0.17323710  0.88603294    -0.18800
C3123       C  0.10874959  0.07016424  0.73003092    -0.20200
C3124       C  0.10949084  0.05766371  0.75550647    -0.08300
C3125       C  0.09095922  0.06622714  0.77513180     0.30600
C3126       C  0.07112148  0.08599857  0.76887479    -0.20200
C3127       C  0.06992494  0.09877316  0.74328376    -0.08300
C3128       C  0.08907866  0.09032257  0.72376010     0.30600
F3129       F  0.08831472  0.10048205  0.69822564    -0.18800
H3130       H  0.12329751  0.06408602  0.71486303     0.18900
H3131       H  0.05609603  0.09072681  0.78397437     0.19000
F3132       F  0.09189018  0.05522980  0.80036673    -0.18800
C3133       C  0.94456728  0.04494335  0.73575021    -0.20200
C3134       C  0.97029092  0.05001076  0.74715252    -0.08300
C3135       C  0.98014829  0.03287595  0.76828138     0.30600
C3136       C  0.96440300  0.01148670  0.77769769    -0.20200
C3137       C  0.93873025  0.00688549  0.76637773    -0.08300
C3138       C  0.92888078  0.02364755  0.74530666     0.30600
F3139       F  0.90371490  0.01987178  0.73455632    -0.18800
H3140       H  0.93653466  0.05765389  0.71949406     0.18900
H3141       H  0.97179499  0.99915615  0.79454655     0.19000
F3142       F  0.00420215  0.03759765  0.78098717    -0.18800
C3143       C  0.88952780  0.24476934  0.73836868    -0.20200
C3144       C  0.88901132  0.22308526  0.71958104    -0.08300
C3145       C  0.88093444  0.19715097  0.72843539     0.30600
C3146       C  0.87309072  0.19327171  0.75546973    -0.20200
C3147       C  0.87377783  0.21501260  0.77430101    -0.08300
C3148       C  0.88233903  0.24081423  0.76541103     0.30600
F3149       F  0.88324602  0.26246047  0.78278408    -0.18800
H3150       H  0.89546391  0.26491295  0.73190802     0.18900
H3151       H  0.86697544  0.17315256  0.76183445     0.19000
F3152       F  0.87985570  0.17583635  0.71072970    -0.18800
C3153       C  0.83547333  0.24467857  0.69403506    -0.20200
C3154       C  0.85626350  0.26056323  0.68392630    -0.08300
C3155       C  0.85305794  0.28898854  0.68182278     0.30600
C3156       C  0.82822156  0.30112058  0.68793529    -0.20200
C3157       C  0.80703163  0.28495628  0.69708095    -0.08300
C3158       C  0.81114863  0.25681366  0.70117005     0.30600
F3159       F  0.79097664  0.24064122  0.70982342    -0.18800
H3160       H  0.83775140  0.22264918  0.69553099     0.18900
H3161       H  0.82526228  0.32290919  0.68484707     0.19000
F3162       F  0.87361823  0.30472803  0.67333918    -0.18800
C3163       C  0.94019456  0.17187161  0.67713746    -0.20200
C3164       C  0.93538415  0.19818192  0.68762278    -0.08300
C3165       C  0.95067849  0.20686383  0.71022670     0.30600
C3166       C  0.96980973  0.18941638  0.72252119    -0.20200
C3167       C  0.97395731  0.16234268  0.71331754    -0.08300
C3168       C  0.95951982  0.15427446  0.68951568     0.30600
F3169       F  0.96514340  0.12998706  0.67719977    -0.18800
H3170       H  0.92918996  0.16506211  0.65921049     0.18900
H3171       H  0.98284017  0.19828965  0.73776536     0.19000
F3172       F  0.94828979  0.23298913  0.71951116    -0.18800
C3173       C  0.85474069  0.26827785  0.61806862    -0.20200
C3174       C  0.88224694  0.26637960  0.62621672    -0.08300
C3175       C  0.90078054  0.28257846  0.61209060     0.30600
C3176       C  0.89206139  0.29950558  0.59032757    -0.20200
C3177       C  0.86456956  0.30135885  0.58236941    -0.08300
C3178       C  0.84600487  0.28558735  0.59663156     0.30600
F3179       F  0.81938179  0.28662111  0.58946286    -0.18800
H3180       H  0.83990938  0.25610273  0.62821377     0.18900
H3181       H  0.90678312  0.31151973  0.57983542     0.19000
F3182       F  0.92735983  0.28236874  0.61956998    -0.18800
C3183       C  0.91622687  0.22047535  0.59994309    -0.20200
C3184       C  0.92909445  0.22127900  0.62568039    -0.08300
C3185       C  0.95753424  0.22111137  0.62732729     0.30600
C3186       C  0.97245018  0.22277558  0.60367464    -0.20200
C3187       C  0.95920786  0.22565478  0.57846376    -0.08300
C3188       C  0.93109223  0.22382533  0.57647517     0.30600
F3189       F  0.91804201  0.22673857  0.55216484    -0.18800
H3190       H  0.89436475  0.21981954  0.59815989     0.18900
H3191       H  0.99430871  0.22412682  0.60521878     0.19000
F3192       F  0.97091604  0.22233058  0.65152967    -0.18800
C3193       C  0.85443371  0.24885326  0.28612651    -0.20200
C3194       C  0.83761235  0.22620486  0.28277356    -0.08300
C3195       C  0.83693390  0.20634416  0.30329576     0.30600
C3196       C  0.85209970  0.20983320  0.32729504    -0.20200
C3197       C  0.86749583  0.23342999  0.33125863    -0.08300
C3198       C  0.86890595  0.25271229  0.31036666     0.30600
F3199       F  0.88375801  0.27562652  0.31382105    -0.18800
H3200       H  0.85537199  0.26422911  0.27044161     0.18900
H3201       H  0.85059998  0.19499124  0.34341287     0.19000
F3202       F  0.82145378  0.18379328  0.30021678    -0.18800
C3203       C  0.81692417  0.25561008  0.36071231    -0.20200
C3204       C  0.83958919  0.27154635  0.36639678    -0.08300
C3205       C  0.83937453  0.29935937  0.35936658     0.30600
C3206       C  0.81650098  0.31096006  0.34642062    -0.20200
C3207       C  0.79447521  0.29440789  0.33954929    -0.08300
C3208       C  0.79474317  0.26674089  0.34692462     0.30600
F3209       F  0.77318162  0.25062852  0.34130169    -0.18800
H3210       H  0.81699800  0.23417726  0.36618032     0.18900
H3211       H  0.81612478  0.33249812  0.34133292     0.19000
F3212       F  0.86153971  0.31478681  0.36418216    -0.18800
C3213       C  0.92612705  0.21072671  0.32990211    -0.20200
C3214       C  0.92234712  0.21054170  0.35830299    -0.08300
C3215       C  0.93805150  0.19071652  0.37275286     0.30600
C3216       C  0.95751396  0.17380227  0.35953619    -0.20200
C3217       C  0.96084254  0.17384154  0.33100609    -0.08300
C3218       C  0.94311381  0.19169921  0.31645289     0.30600
F3219       F  0.93976457  0.18966765  0.28929365    -0.18800
H3220       H  0.91546156  0.22533843  0.31729102     0.18900
H3221       H  0.96943300  0.15953685  0.37173363     0.19000
F3222       F  0.93390811  0.18632142  0.39943628    -0.18800
C3223       C  0.83750902  0.28132336  0.42728758    -0.20200
C3224       C  0.86571400  0.27688377  0.42419586    -0.08300
C3225       C  0.88231330  0.29102887  0.44333670     0.30600
C3226       C  0.87099232  0.30764423  0.46449458    -0.20200
C3227       C  0.84264903  0.31216514  0.46715154    -0.08300
C3228       C  0.82648320  0.29981227  0.44657609     0.30600
F3229       F  0.80010153  0.30712081  0.44315012    -0.18800
H3230       H  0.82326351  0.27101636  0.41415252     0.18900
H3231       H  0.88471444  0.31793023  0.47837800     0.19000
F3232       F  0.90959989  0.29021462  0.44100293    -0.18800
C3233       C  0.93296717  0.22384079  0.46447822    -0.20200
C3234       C  0.95978291  0.23068864  0.45934275    -0.08300
C3235       C  0.96704231  0.24014083  0.43377662     0.30600
C3236       C  0.94732263  0.24350580  0.41361352    -0.20200
C3237       C  0.92031759  0.23756803  0.41897811    -0.08300
C3238       C  0.91319008  0.22712232  0.44425113     0.30600
F3239       F  0.88714597  0.22080086  0.44947355    -0.18800
H3240       H  0.92715960  0.21750679  0.48455730     0.18900
H3241       H  0.95290047  0.25154489  0.39408807     0.19000
F3242       F  0.99274522  0.24809947  0.42909778    -0.18800
C3243       C  0.29942097  0.30854445  0.48290671    -0.20200
C3244       C  0.30079790  0.33448649  0.49580142    -0.08300
C3245       C  0.32604557  0.34173092  0.50776925     0.30600
C3246       C  0.34830119  0.32329307  0.50753921    -0.20200
C3247       C  0.34634013  0.29761206  0.49481124    -0.08300
C3248       C  0.32181563  0.29064655  0.48213282     0.30600
F3249       F  0.31926246  0.26591989  0.46975029    -0.18800
H3250       H  0.28088340  0.30138585  0.47366731     0.18900
H3251       H  0.36725798  0.32913014  0.51710750     0.19000
F3252       F  0.32973834  0.36666139  0.51928308    -0.18800
C3253       C  0.19605432  0.46410251  0.42029507    -0.20200
C3254       C  0.21284358  0.44757750  0.43661671    -0.08300
C3255       C  0.23937470  0.44125871  0.42907116     0.30600
C3256       C  0.24967375  0.45270378  0.40598435    -0.20200
C3257       C  0.23345789  0.47041799  0.39018321    -0.08300
C3258       C  0.20643303  0.47576757  0.39708046     0.30600
F3259       F  0.19060562  0.49299700  0.38192247    -0.18800
H3260       H  0.17527044  0.46822086  0.42586090     0.18900
H3261       H  0.27082415  0.44918520  0.40163159     0.19000
F3262       F  0.25529195  0.42430345  0.44444814    -0.18800
C3263       C  0.26637659  0.43693653  0.54481128    -0.20200
C3264       C  0.23846203  0.43007131  0.54346077    -0.08300
C3265       C  0.22146128  0.44873370  0.55812711     0.30600
C3266       C  0.23187142  0.47120096  0.57414952    -0.20200
C3267       C  0.25989408  0.47712580  0.57630669    -0.08300
C3268       C  0.27674777  0.45928210  0.56078028     0.30600
F3269       F  0.30380620  0.46353514  0.56072862    -0.18800
H3270       H  0.28070395  0.42554600  0.53282667     0.18900
H3271       H  0.21775350  0.48368301  0.58557561     0.19000
F3272       F  0.19426971  0.44542997  0.55695781    -0.18800
C3273       C  0.16210313  0.20801491  0.31840416    -0.20200
C3274       C  0.16383690  0.22212523  0.29364537    -0.08300
C3275       C  0.16109188  0.25088476  0.29413999     0.30600
C3276       C  0.15508513  0.26471935  0.31862084    -0.20200
C3277       C  0.15233043  0.25021960  0.34304670    -0.08300
C3278       C  0.15674520  0.22179460  0.34271545     0.30600
F3279       F  0.15595254  0.20724956  0.36603205    -0.18800
H3280       H  0.16480345  0.18597639  0.31897142     0.18900
H3281       H  0.15202908  0.28670767  0.31841273     0.19000
F3282       F  0.16305370  0.26545436  0.27092802    -0.18800
C3283       C  0.20499965  0.25770583  0.38499182    -0.20200
C3284       C  0.18931156  0.28097810  0.37844196    -0.08300
C3285       C  0.19801688  0.29916020  0.35876193     0.30600
C3286       C  0.22192441  0.29363672  0.34515492    -0.20200
C3287       C  0.23717687  0.26996124  0.35125904    -0.08300
C3288       C  0.22892375  0.25221319  0.37153019     0.30600
F3289       F  0.24381534  0.22947615  0.37792167    -0.18800
H3290       H  0.19755578  0.24285902  0.39915819     0.18900
H3291       H  0.22889005  0.30808333  0.33031772     0.19000
F3292       F  0.18237630  0.32112349  0.35158464    -0.18800
C3293       C  0.19658342  0.31738849  0.46595148    -0.20200
C3294       C  0.18706650  0.34485888  0.46925711    -0.08300
C3295       C  0.16245018  0.35091649  0.45466675     0.30600
C3296       C  0.15066148  0.33223952  0.43559577    -0.20200
C3297       C  0.16190496  0.30600954  0.43042371    -0.08300
C3298       C  0.18475487  0.29867594  0.44680689     0.30600
F3299       F  0.19529726  0.27293382  0.44507965    -0.18800
H3300       H  0.21318626  0.30992487  0.47854192     0.18900
H3301       H  0.13241062  0.33849501  0.42465676     0.19000
F3302       F  0.14872002  0.37464744  0.45943555    -0.18800
C3303       C  0.09974692  0.21233426  0.38679565    -0.20200
C3304       C  0.10068332  0.23809736  0.37402927    -0.08300
C3305       C  0.08597299  0.24126154  0.34940154     0.30600
C3306       C  0.07064311  0.21963765  0.33825285    -0.20200
C3307       C  0.07025123  0.19367958  0.35058312    -0.08300
C3308       C  0.08496697  0.19038211  0.37516010     0.30600
F3309       F  0.08465678  0.16600991  0.38815722    -0.18800
H3310       H  0.11138730  0.20886640  0.40531186     0.18900
H3311       H  0.05891644  0.22313837  0.31979427     0.19000
F3312       F  0.08661748  0.26536645  0.33590597    -0.18800
C3313       C  0.11181202  0.26569320  0.45498068    -0.20200
C3314       C  0.10431178  0.27513257  0.42916676    -0.08300
C3315       C  0.07754645  0.28383506  0.42373959     0.30600
C3316       C  0.05814314  0.28207017  0.44384953    -0.20200
C3317       C  0.06529895  0.27096426  0.46914056    -0.08300
C3318       C  0.09233531  0.26328661  0.47483648     0.30600
F3319       F  0.09963044  0.25259058  0.49930951    -0.18800
H3320       H  0.13243926  0.25894602  0.45929959     0.18900
H3321       H  0.03730052  0.28779035  0.43918617     0.19000
F3322       F  0.07014911  0.29342187  0.39885519    -0.18800
C3323       C  0.18396844  0.24083807  0.71753300    -0.20200
C3324       C  0.17598086  0.24175954  0.74462386    -0.08300
C3325       C  0.15331166  0.25766035  0.75199018     0.30600
C3326       C  0.13966965  0.27348491  0.73240884    -0.20200
C3327       C  0.14841813  0.27331414  0.70549854    -0.08300
C3328       C  0.17002087  0.25605533  0.69801231     0.30600
F3329       F  0.17685745  0.25290255  0.67169591    -0.18800
H3330       H  0.20123307  0.22838350  0.71153861     0.18900
H3331       H  0.12234089  0.28596955  0.73809774     0.19000
F3332       F  0.14532618  0.25899780  0.77818038    -0.18800
C3333       C  0.18458270  0.32623528  0.68651188    -0.20200
C3334       C  0.17137950  0.31267113  0.66526659    -0.08300
C3335       C  0.18641149  0.30173509  0.64356741     0.30600
C3336       C  0.21442277  0.30370398  0.64368064    -0.20200
C3337       C  0.22771681  0.31546347  0.66591315    -0.08300
C3338       C  0.21267607  0.32754471  0.68698726     0.30600
F3339       F  0.22524153  0.33928922  0.70872828    -0.18800
H3340       H  0.17322968  0.33443721  0.70340390     0.18900
H3341       H  0.22581156  0.29365804  0.62777479     0.19000
F3342       F  0.17461944  0.28577182  0.62432136    -0.18800
C3343       C  0.10920777  0.22944536  0.67813229    -0.20200
C3344       C  0.09609613  0.25441468  0.68404549    -0.08300
C3345       C  0.07094950  0.25444090  0.69665085     0.30600
C3346       C  0.05854502  0.22961219  0.70209707    -0.20200
C3347       C  0.07101461  0.20454114  0.69471196    -0.08300
C3348       C  0.09667516  0.20470296  0.68306852     0.30600
F3349       F  0.10887563  0.18103527  0.67497740    -0.18800
H3350       H  0.12857097  0.22915875  0.66820481     0.18900
H3351       H  0.03908438  0.22998075  0.71184967     0.19000
F3352       F  0.05847519  0.27837464  0.70358660    -0.18800
C3353       C  0.13782595  0.35420124  0.62440234    -0.20200
C3354       C  0.12948682  0.32693963  0.62208824    -0.08300
C3355       C  0.13268519  0.31323845  0.59718761     0.30600
C3356       C  0.14612683  0.32569583  0.57614516    -0.20200
C3357       C  0.15650937  0.35222470  0.57903484    -0.08300
C3358       C  0.15092621  0.36694463  0.60303421     0.30600
F3359       F  0.15852612  0.39330854  0.60627662    -0.18800
H3360       H  0.13547220  0.36515497  0.64340670     0.18900
H3361       H  0.15014589  0.31341470  0.55833000     0.19000
F3362       F  0.12675843  0.28644191  0.59423877    -0.18800
C3363       C  0.08673216  0.25844158  0.62032551    -0.20200
C3364       C  0.08334806  0.28483574  0.63122565    -0.08300
C3365       C  0.06491480  0.30325752  0.61930287     0.30600
C3366       C  0.05029241  0.29543565  0.59631151    -0.20200
C3367       C  0.05417396  0.26920466  0.58487473    -0.08300
C3368       C  0.07228594  0.25056681  0.59733343     0.30600
F3369       F  0.07699442  0.22522474  0.58680607    -0.18800
H3370       H  0.10222512  0.24463878  0.62810769     0.18900
H3371       H  0.03624811  0.31013685  0.58725653     0.19000
F3372       F  0.06178950  0.32900785  0.62938358    -0.18800
C3373       C  0.18321015  0.99349350  0.22987475    -0.20200
C3374       C  0.18604643  0.98362717  0.20309176    -0.08300
C3375       C  0.16222245  0.97585748  0.18880203     0.30600
C3376       C  0.13672088  0.97783710  0.20110085    -0.20200
C3377       C  0.13418585  0.98790372  0.22768023    -0.08300
C3378       C  0.15771087  0.99569175  0.24193827     0.30600
F3379       F  0.15602884  0.00465930  0.26795704    -0.18800
H3380       H  0.20084605  0.99919930  0.24178862     0.18900
H3381       H  0.11881301  0.97164994  0.18982933     0.19000
F3382       F  0.16325304  0.96708016  0.16269926    -0.18800
C3383       C  0.29455294  0.07540809  0.05336679    -0.20200
C3384       C  0.27077175  0.07317356  0.03755404    -0.08300
C3385       C  0.25101732  0.05447329  0.04485782     0.30600
C3386       C  0.25515797  0.03806818  0.06760976    -0.20200
C3387       C  0.27858006  0.04081816  0.08389678    -0.08300
C3388       C  0.29826522  0.05963399  0.07673242     0.30600
F3389       F  0.32083834  0.06282050  0.09243576    -0.18800
H3390       H  0.30931753  0.09074392  0.04864225     0.18900
H3391       H  0.23971289  0.02373516  0.07310304     0.19000
F3392       F  0.22711457  0.05328239  0.03091249    -0.18800
C3393       C  0.27652416  0.92236468  0.10710840    -0.20200
C3394       C  0.25892918  0.94146770  0.11977628    -0.08300
C3395       C  0.23602192  0.95070733  0.10435627     0.30600
C3396       C  0.23194739  0.94237314  0.07745607    -0.20200
C3397       C  0.24956925  0.92369674  0.06500668    -0.08300
C3398       C  0.27142565  0.91293423  0.08040826     0.30600
F3399       F  0.28794914  0.89346158  0.06956725    -0.18800
H3400       H  0.29501804  0.91564070  0.11712415     0.18900
H3401       H  0.21454153  0.95041971  0.06623440     0.19000
F3402       F  0.21937300  0.97080655  0.11379659    -0.18800
C3403       C  0.51225875  0.68931774  0.29459597    -0.20200
C3404       C  0.51396982  0.68796986  0.32311186    -0.08300
C3405       C  0.51354278  0.66204559  0.33540677     0.30600
C3406       C  0.51133214  0.63816193  0.31944358    -0.20200
C3407       C  0.51030567  0.63958501  0.29093312    -0.08300
C3408       C  0.51072883  0.66541721  0.27867874     0.30600
F3409       F  0.50955703  0.66743287  0.25125504    -0.18800
H3410       H  0.51240345  0.70900973  0.28464697     0.18900
H3411       H  0.51074096  0.61844614  0.32928847     0.19000
F3412       F  0.51443644  0.65990573  0.36283281    -0.18800
C3413       C  0.45830022  0.78770181  0.46990450    -0.20200
C3414       C  0.46959412  0.77046694  0.45015837    -0.08300
C3415       C  0.47088175  0.74214530  0.45460413     0.30600
C3416       C  0.46089922  0.73119945  0.47836987    -0.20200
C3417       C  0.44832936  0.74814417  0.49766188    -0.08300
C3418       C  0.44746056  0.77663917  0.49346048     0.30600
F3419       F  0.43495785  0.79359688  0.51136391    -0.18800
H3420       H  0.45802181  0.80965962  0.46704841     0.18900
H3421       H  0.46172962  0.70921864  0.48109154     0.19000
F3422       F  0.48201797  0.72516666  0.43582374    -0.18800
C3423       C  0.58391811  0.77384666  0.42088715    -0.20200
C3424       C  0.56419498  0.75657988  0.40883055    -0.08300
C3425       C  0.55906382  0.73215796  0.42349607     0.30600
C3426       C  0.57351865  0.72511044  0.44762939    -0.20200
C3427       C  0.59315875  0.74222118  0.45942743    -0.08300
C3428       C  0.59840486  0.76666295  0.44524969     0.30600
F3429       F  0.61809550  0.78346644  0.45461870    -0.18800
H3430       H  0.58781143  0.79343148  0.41175372     0.18900
H3431       H  0.56935911  0.70576629  0.45720013     0.19000
F3432       F  0.53864665  0.71552426  0.41571460    -0.18800
C3433       C  0.80138200  0.02317144  0.21018903    -0.20200
C3434       C  0.77388943  0.02078720  0.21630056    -0.08300
C3435       C  0.76684989  0.01492806  0.24325753     0.30600
C3436       C  0.78687982  0.00913074  0.26287606    -0.20200
C3437       C  0.81427644  0.00981673  0.25635068    -0.08300
C3438       C  0.82144718  0.01806591  0.23010105     0.30600
F3439       F  0.84776300  0.02097718  0.22358462    -0.18800
H3440       H  0.80733517  0.02784090  0.18972403     0.18900
H3441       H  0.78108124  0.00412574  0.28331325     0.19000
F3442       F  0.74049592  0.01444918  0.25053640    -0.18800
C3443       C  0.71136498  0.07020082  0.09167969    -0.20200
C3444       C  0.72829154  0.05316608  0.10818235    -0.08300
C3445       C  0.75609283  0.05215089  0.10143448     0.30600
C3446       C  0.76641419  0.06811495  0.08022781    -0.20200
C3447       C  0.74954438  0.08510034  0.06399553    -0.08300
C3448       C  0.72174620  0.08590584  0.07011521     0.30600
F3449       F  0.70457377  0.10224624  0.05547010    -0.18800
H3450       H  0.68976040  0.07083271  0.09485823     0.18900
H3451       H  0.78794375  0.06721962  0.07644857     0.19000
F3452       F  0.77340773  0.03484499  0.11473250    -0.18800
C3453       C  0.73730446  0.95854723  0.04314600    -0.20200
C3454       C  0.71705807  0.95212141  0.06177810    -0.08300
C3455       C  0.70084696  0.92919494  0.05685465     0.30600
C3456       C  0.70692565  0.91147660  0.03559067    -0.20200
C3457       C  0.72861258  0.91682257  0.01862135    -0.08300
C3458       C  0.74282450  0.94113867  0.02142903     0.30600
F3459       F  0.76382084  0.94649634  0.00498238    -0.18800
H3460       H  0.75005085  0.97611023  0.04627032     0.18900
H3461       H  0.69588196  0.89258346  0.03341928     0.19000
F3462       F  0.67974183  0.92338873  0.07295155    -0.18800
C3463       C  0.73187608  0.83637008  0.19947610    -0.20200
C3464       C  0.75267901  0.83767540  0.21927572    -0.08300
C3465       C  0.74855961  0.85332790  0.24290986     0.30600
C3466       C  0.72378911  0.86670632  0.24689942    -0.20200
C3467       C  0.70286682  0.86492342  0.22741541    -0.08300
C3468       C  0.70713536  0.85005368  0.20345085     0.30600
F3469       F  0.68676118  0.84737248  0.18486322    -0.18800
H3470       H  0.73467599  0.82443570  0.18112171     0.18900
H3471       H  0.72025593  0.87736156  0.26586855     0.19000
F3472       F  0.76776030  0.85421539  0.26293528    -0.18800
C3473       C  0.67425069  0.80826684  0.24818987    -0.20200
C3474       C  0.67130408  0.83140877  0.26480862    -0.08300
C3475       C  0.67559809  0.82884259  0.29292992     0.30600
C3476       C  0.68165262  0.80324143  0.30433200    -0.20200
C3477       C  0.68390921  0.77976912  0.28784999    -0.08300
C3478       C  0.68066314  0.78270179  0.25944776     0.30600
F3479       F  0.68256868  0.76075482  0.24252315    -0.18800
H3480       H  0.67077219  0.80984625  0.22650214     0.18900
H3481       H  0.68447848  0.80178202  0.32611252     0.19000
F3482       F  0.67388625  0.85113891  0.30937155    -0.18800
C3483       C  0.69713244  0.92348656  0.20334629    -0.20200
C3484       C  0.66958327  0.91842690  0.20853792    -0.08300
C3485       C  0.65055570  0.93467871  0.19346017     0.30600
C3486       C  0.65881625  0.95659919  0.17690874    -0.20200
C3487       C  0.68640389  0.96236329  0.17309906    -0.08300
C3488       C  0.70523152  0.94360088  0.18484935     0.30600
F3489       F  0.73190817  0.94491380  0.17894376    -0.18800
H3490       H  0.71308082  0.91224970  0.21367590     0.18900
H3491       H  0.64335955  0.96854956  0.16634557     0.19000
F3492       F  0.62388128  0.92879113  0.19326530    -0.18800
C3493       C  0.60287997  0.83528179  0.26926625    -0.20200
C3494       C  0.61692327  0.85890881  0.27723346    -0.08300
C3495       C  0.61382849  0.86861457  0.30398716     0.30600
C3496       C  0.59744445  0.85464300  0.32237775    -0.20200
C3497       C  0.58345972  0.83100225  0.31433681    -0.08300
C3498       C  0.58606737  0.82171163  0.28741311     0.30600
F3499       F  0.57283657  0.79902116  0.27891557    -0.18800
H3500       H  0.60532308  0.82706568  0.24898641     0.18900
H3501       H  0.59554201  0.86231460  0.34291130     0.19000
F3502       F  0.62756404  0.89093222  0.31265132    -0.18800
C3503       C  0.58851266  0.90499263  0.23713366    -0.20200
C3504       C  0.61423471  0.91420778  0.24483568    -0.08300
C3505       C  0.61720329  0.94074093  0.25545160     0.30600
C3506       C  0.59436631  0.95775258  0.25855753    -0.20200
C3507       C  0.56870737  0.94844056  0.25060417    -0.08300
C3508       C  0.56590726  0.92204102  0.23977230     0.30600
F3509       F  0.54111043  0.91246268  0.23263314    -0.18800
H3510       H  0.58597212  0.88442761  0.22925107     0.18900
H3511       H  0.59669471  0.97803564  0.26709617     0.19000
F3512       F  0.64191061  0.94974571  0.26356517    -0.18800
C3513       C  0.33718264  0.81535382  0.22663083    -0.20200
C3514       C  0.34211658  0.82825619  0.25157855    -0.08300
C3515       C  0.32011984  0.83851741  0.26647349     0.30600
C3516       C  0.29351968  0.83621213  0.25611640    -0.20200
C3517       C  0.28866216  0.82418566  0.23051553    -0.08300
C3518       C  0.31087008  0.81338448  0.21609421    -0.08400
F3519       F  0.30719897  0.80079360  0.19171047    -0.18800
H3520       H  0.35392171  0.80727518  0.21496796     0.18900
H3521       H  0.27685909  0.84469814  0.26760677     0.19000
F3522       F  0.32446579  0.85175272  0.29038484    -0.18800
C3523       C  0.36041598  0.80413460  0.31907531    -0.20200
C3524       C  0.37308784  0.79794348  0.29462356    -0.08300
C3525       C  0.36962670  0.77263310  0.28197226     0.30600
C3526       C  0.35447689  0.75294054  0.29436579    -0.20200
C3527       C  0.34325068  0.75830594  0.31980623    -0.08300
C3528       C  0.34558157  0.78424103  0.33186582     0.30600
F3529       F  0.33420443  0.78990716  0.35617518    -0.18800
H3530       H  0.36185972  0.82439857  0.32792080     0.18900
H3531       H  0.35324728  0.73285786  0.28500795     0.19000
F3532       F  0.38097513  0.76721519  0.25761495    -0.18800
C3533       C  0.36486215  0.89813575  0.24667016    -0.20200
C3534       C  0.37570482  0.87548071  0.23283140    -0.08300
C3535       C  0.37008313  0.87254734  0.20493766     0.30600
C3536       C  0.35385887  0.89203466  0.19120626    -0.20200
C3537       C  0.34238178  0.91451159  0.20513645    -0.08300
C3538       C  0.34817445  0.91730500  0.23318264     0.30600
F3539       F  0.33615656  0.93731127  0.24813210    -0.18800
H3540       H  0.36793076  0.90000940  0.26841628     0.18900
H3541       H  0.34982158  0.88925811  0.16972715     0.19000
F3542       F  0.37931917  0.85020171  0.19124466    -0.18800
C3543       C  0.45501203  0.80323800  0.28969690    -0.20200
C3544       C  0.43254998  0.81765512  0.30010129    -0.08300
C3545       C  0.43270146  0.82311292  0.32819373     0.30600
C3546       C  0.45433653  0.81396854  0.34523038    -0.20200
C3547       C  0.47632521  0.79804968  0.33527905    -0.08300
C3548       C  0.47643230  0.79359412  0.30679316     0.30600
F3549       F  0.49754329  0.78017064  0.29517753    -0.18800
H3550       H  0.45599273  0.79937496  0.26808172     0.18900
H3551       H  0.45395576  0.82036678  0.36616864     0.19000
F3552       F  0.41258417  0.83865126  0.33908145    -0.18800
C3553       C  0.44375319  0.88052919  0.28472982    -0.20200
C3554       C  0.43365671  0.86907981  0.26067974    -0.08300
C3555       C  0.44148154  0.87932548  0.23555596     0.30600
C3556       C  0.45717885  0.90262768  0.23467763    -0.20200
C3557       C  0.46552082  0.91539607  0.25889702    -0.08300
C3558       C  0.46002756  0.90319101  0.28396569     0.30600
F3559       F  0.46875415  0.91402673  0.30793643    -0.18800
H3560       H  0.43757659  0.87325071  0.30428155     0.18900
H3561       H  0.46186347  0.91122436  0.21514495     0.19000
F3562       F  0.43302095  0.86749694  0.21199370    -0.18800
C3563       C  0.47257188  0.26004434  0.28927428    -0.20200
C3564       C  0.47663986  0.26284712  0.31730230    -0.08300
C3565       C  0.48697528  0.28733091  0.32793767     0.30600
C3566       C  0.49447825  0.30816767  0.31044963    -0.20200
C3567       C  0.49208351  0.30457124  0.28226509    -0.08300
C3568       C  0.48008413  0.28079618  0.27185681     0.30600
F3569       F  0.47678593  0.27724335  0.24469175    -0.18800
H3570       H  0.46491340  0.24108685  0.28090582     0.18900
H3571       H  0.50229168  0.32683731  0.31897880     0.19000
F3572       F  0.49173752  0.29015721  0.35499844    -0.18800
C3573       C  0.43169180  0.19463078  0.43243473    -0.20200
C3574       C  0.45003850  0.21002091  0.41728966    -0.08300
C3575       C  0.45340102  0.23780923  0.42482149     0.30600
C3576       C  0.43769118  0.25001912  0.44509912    -0.20200
C3577       C  0.41912374  0.23477534  0.45965904    -0.08300
C3578       C  0.41657668  0.20678692  0.45347620     0.30600
F3579       F  0.39898897  0.19136872  0.46737782    -0.18800
H3580       H  0.42955820  0.17295274  0.42870583     0.18900
H3581       H  0.44035194  0.27149906  0.44982639     0.19000
F3582       F  0.47279714  0.25307614  0.41336676    -0.18800
C3583       C  0.57239652  0.23920641  0.48345381    -0.20200
C3584       C  0.59818552  0.22722674  0.48280745    -0.08300
C3585       C  0.60358200  0.20513067  0.46548096     0.30600
C3586       C  0.58316139  0.19525070  0.44851672    -0.20200
C3587       C  0.55733057  0.20772124  0.44825694    -0.08300
C3588       C  0.55210000  0.22989664  0.46607273     0.30600
F3589       F  0.52809650  0.24376862  0.46581457    -0.18800
H3590       H  0.56835079  0.25662215  0.49656121     0.18900
H3591       H  0.58763229  0.17798285  0.43541599     0.19000
F3592       F  0.62856541  0.19314556  0.46507573    -0.18800
C3593       C  0.26994955  0.10652836  0.26981964    -0.20200
C3594       C  0.29348813  0.11442692  0.25703734    -0.08300
C3595       C  0.29260841  0.13681338  0.23928253     0.30600
C3596       C  0.26821806  0.15122680  0.23452393    -0.20200
C3597       C  0.24445154  0.14363872  0.24765775    -0.08300
C3598       C  0.24571650  0.12092419  0.26544284     0.30600
F3599       F  0.22366008  0.11249529  0.27894822    -0.18800
H3600       H  0.27058567  0.08972846  0.28409271     0.18900
H3601       H  0.26795638  0.16829641  0.22060743     0.19000
F3602       F  0.31543118  0.14494403  0.22694434    -0.18800
C3603       C  0.31720241  0.18610512  0.30257838    -0.20200
C3604       C  0.33736425  0.20072350  0.28927501    -0.08300
C3605       C  0.35814793  0.18639014  0.27592297     0.30600
C3606       C  0.35795402  0.15804681  0.27493749    -0.20200
C3607       C  0.33749482  0.14361283  0.28759691    -0.08300
C3608       C  0.31735214  0.15762941  0.30185762     0.30600
F3609       F  0.29775923  0.14375549  0.31461435    -0.18800
H3610       H  0.30123747  0.19669581  0.31341671     0.18900
H3611       H  0.37331227  0.14721734  0.26349595     0.19000
F3612       F  0.37803492  0.19962393  0.26291189    -0.18800
C3613       C  0.39787819  0.12278846  0.34907970    -0.20200
C3614       C  0.42349716  0.12717661  0.33797153    -0.08300
C3615       C  0.42748137  0.11985967  0.31043264     0.30600
C3616       C  0.40644702  0.10843751  0.29495760    -0.20200
C3617       C  0.38089543  0.10500372  0.30612279    -0.08300
C3618       C  0.37671489  0.11236589  0.33324553     0.30600
F3619       F  0.35188408  0.10996909  0.34427163    -0.18800
H3620       H  0.39399494  0.12780807  0.37006523     0.18900
H3621       H  0.40965632  0.10374925  0.27374307     0.19000
F3622       F  0.45083349  0.12517571  0.29762556    -0.18800
C3623       C  0.30476367  0.03363186  0.24775013    -0.20200
C3624       C  0.31787692  0.05730359  0.23956866    -0.08300
C3625       C  0.32012959  0.06266869  0.21189965     0.30600
C3626       C  0.31076760  0.04383598  0.19269351    -0.20200
C3627       C  0.29629953  0.02051574  0.20033700    -0.08300
C3628       C  0.29373091  0.01558536  0.22842567     0.30600
F3629       F  0.28138304  0.99278323  0.23726446    -0.18800
H3630       H  0.30294702  0.02921562  0.26914011     0.18900
H3631       H  0.31634063  0.04734053  0.17211146     0.19000
F3632       F  0.33235094  0.08570660  0.20339229    -0.18800
C3633       C  0.38744397  0.04022962  0.29237908    -0.20200
C3634       C  0.37589986  0.05330993  0.26967870    -0.08300
C3635       C  0.38884286  0.05141587  0.24462098     0.30600
C3636       C  0.41315686  0.03681359  0.24248086    -0.20200
C3637       C  0.42533687  0.02449072  0.26541243    -0.08300
C3638       C  0.41204106  0.02602452  0.29041597     0.30600
F3639       F  0.42308942  0.01461070  0.31316014    -0.18800
H3640       H  0.37803716  0.04226399  0.31199281     0.18900
H3641       H  0.42310683  0.03634655  0.22307744     0.19000
F3642       F  0.37950596  0.06575683  0.22285303    -0.18800
C3643       C  0.68726645  0.14024037  0.27847683    -0.20200
C3644       C  0.66523319  0.14191137  0.26012186    -0.08300
C3645       C  0.66956435  0.15115744  0.23363232     0.30600
C3646       C  0.69543127  0.15905071  0.22585794    -0.20200
C3647       C  0.71735319  0.15779347  0.24434450    -0.08300
C3648       C  0.71316394  0.14809154  0.27067931     0.30600
F3649       F  0.73400867  0.14680525  0.28896347    -0.18800
H3650       H  0.68421267  0.13316709  0.29895012     0.18900
H3651       H  0.69816792  0.16714248  0.20569840     0.19000
F3652       F  0.64847497  0.15382665  0.21579364    -0.18800
C3653       C  0.66286351  0.20343857  0.31992083    -0.20200
C3654       C  0.66489939  0.22138475  0.29793879    -0.08300
C3655       C  0.64931054  0.21778910  0.27438089     0.30600
C3656       C  0.63214142  0.19576385  0.27265132    -0.20200
C3657       C  0.63133772  0.17698641  0.29401803    -0.08300
C3658       C  0.64616481  0.18106028  0.31791895     0.30600
F3659       F  0.64566997  0.16264602  0.33840861    -0.18800
H3660       H  0.67420707  0.20692964  0.33861485     0.18900
H3661       H  0.62105568  0.19204546  0.25384724     0.19000
F3662       F  0.65029913  0.23574546  0.25351986    -0.18800
C3663       C  0.61479410  0.09715303  0.21149776    -0.20200
C3664       C  0.63017398  0.09769886  0.23575577    -0.08300
C3665       C  0.65449444  0.08244230  0.23751253     0.30600
C3666       C  0.66367913  0.06766939  0.21510661    -0.20200
C3667       C  0.64867817  0.06761816  0.19071397    -0.08300
C3668       C  0.62399061  0.08215405  0.18905264     0.30600
F3669       F  0.60881840  0.08159871  0.16585512    -0.18800
H3670       H  0.59603474  0.10885911  0.20977675     0.18900
H3671       H  0.68241367  0.05590247  0.21674430     0.19000
F3672       F  0.66924177  0.08163310  0.26098960    -0.18800
C3673       C  0.57126483  0.17599406  0.31619659    -0.20200
C3674       C  0.57510638  0.14822126  0.30906133    -0.08300
C3675       C  0.55811836  0.12921031  0.32175254     0.30600
C3676       C  0.53676622  0.13794021  0.33848710    -0.20200
C3677       C  0.53198250  0.16583266  0.34424034    -0.08300
C3678       C  0.55097041  0.18449323  0.33425407     0.30600
F3679       F  0.55017370  0.21117088  0.34209040    -0.18800
H3680       H  0.58381233  0.19157966  0.30782598     0.18900
H3681       H  0.52478532  0.12248048  0.34795339     0.19000
F3682       F  0.56292713  0.10193549  0.31963730    -0.18800
C3683       C  0.58426758  0.07074373  0.27251333    -0.20200
C3684       C  0.57662126  0.09767205  0.26662132    -0.08300
C3685       C  0.55022535  0.10431282  0.25763813     0.30600
C3686       C  0.53151838  0.08344453  0.25420093    -0.20200
C3687       C  0.53944300  0.05656228  0.26046025    -0.08300
C3688       C  0.56568821  0.05031150  0.26979485     0.30600
F3689       F  0.57317886  0.02436286  0.27664261    -0.18800
H3690       H  0.60454548  0.06569151  0.27987675     0.18900
H3691       H  0.51099559  0.08819108  0.24745510     0.19000
F3692       F  0.54275692  0.13064337  0.25242082    -0.18800
loop_ 
_geom_bond_atom_site_label_1 
_geom_bond_atom_site_label_2 
_geom_bond_distance 
_geom_bond_site_symmetry_2 
_ccdc_geom_bond_type 
N1            C5   1.336       .  A
N1            C2   1.355       .  A
N1         C3644   1.449       .  S
C2            C3   1.398       .  A
C2         C3657   1.434       .  S
C3            C4   1.397       .  A
C3         C3674   1.526       .  S
C4            C5   1.389       .  A
C4         C3684   1.440       .  S
C5         C3664   1.483       .  S
N6           C10   1.344       .  A
N6            C7   1.347       .  A
N6         C3607   1.426       .  S
C7            C8   1.385       .  A
C7         C3594   1.472       .  S
C8            C9   1.394       .  A
C8         C3624   1.475       .  S
C9           C10   1.384       .  A
C9         C3634   1.466       .  S
C10        C3617   1.480       .  S
C11          C13   1.525       .  S
C11          C15   1.555       .  S
C11          C14   1.535       .  S
C11        C3677   1.554       .  S
C12          C16   1.518       .  S
C12          C18   1.550       .  S
C12          C17   1.541       .  S
C12        C3574   1.547       .  S
C13          C21   1.372       .  A
C13          C16   1.382       .  A
C14          C25   1.367       .  A
C14          C17   1.397       .  A
C15          C29   1.382       .  A
C15          C18   1.430       .  A
C16          C19   1.364       .  A
C17          C23   1.381       .  A
C18          C26   1.382       .  A
C19          N20   1.354       .  A
C19          H32   1.080       .  S
N20          C21   1.361       .  A
N20        C3587   1.434       .  S
C21          H22   1.082       .  S
C23          N24   1.357       .  A
C23          H33   1.082       .  S
N24          C25   1.352       .  A
N24        C3564   1.426       .  S
C25          H31   1.082       .  S
C26          N27   1.356       .  A
C26          H28   1.082       .  S
N27          C29   1.354       .  A
N27        C3614   1.450       .  S
C29          H30   1.076       .  S
N34          C38   1.354       .  A
N34          C35   1.349       .  A
N34        C3524   1.408       .  S
C35          C36   1.369       .  A
C35        C3514   1.486       .  S
C36          C37   1.400       .  A
C36        C3534   1.484       .  S
C37          C38   1.398       .  A
C37        C3554   1.454       .  S
C38        C3544   1.521       .  S
N39          C43   1.372       .  A
N39          C40   1.358       .  A
N39        C3467   1.432       .  S
C40          C41   1.372       .  A
C40        C3474   1.486       .  S
C41          C42   1.400       .  A
C41        C3494   1.503       .  S
C42          C43   1.421       .  A
C42        C3504   1.465       .  S
C43        C3484   1.547       .  S
C44          C46   1.521       .  S
C44          C48   1.559       .  S
C44          C47   1.556       .  S
C44        C3444   1.571       .  S
C45          C49   1.527       .  S
C45          C51   1.549   1_565  S
C45          C50   1.538   1_565  S
C45        C3487   1.571       .  S
C46          C54   1.365   1_545  A
C46          C49   1.388   1_545  A
C47          C58   1.392       .  A
C47          C50   1.402       .  A
C48          C62   1.389       .  A
C48          C51   1.435       .  A
C49          C52   1.374       .  A
C50          C56   1.366       .  A
C51          C59   1.378       .  A
C52          N53   1.363       .  A
C52          H65   1.081       .  S
N53          C54   1.353       .  A
N53        C3454   1.435       .  S
C54          H55   1.082   1_565  S
C56          N57   1.352       .  A
C56          H66   1.081   1_545  S
N57          C58   1.367       .  A
N57        C3434   1.444       .  S
C58          H64   1.082       .  S
C59          N60   1.347       .  A
C59          H61   1.083       .  S
N60          C62   1.354       .  A
N60        C3667   1.432       .  S
C62          H63   1.083       .  S
C67          C69   1.560       .  S
C67          C71   1.535       .  S
C67          C70   1.569       .  S
C67        C3424   1.585       .  S
C68          C72   1.554       .  S
C68          C74   1.555       .  S
C68          C73   1.539       .  S
C68        C3547   1.575       .  S
C69          C77   1.395       .  A
C69          C72   1.410       .  A
C70          C81   1.395       .  A
C70          C73   1.405       .  A
C71          C85   1.369       .  A
C71          C74   1.408       .  A
C72          C75   1.382       .  A
C73          C79   1.380       .  A
C74          C82   1.398       .  A
C75          N76   1.359       .  A
C75          H88   1.082       .  S
N76          C77   1.368       .  A
N76        C3497   1.452       .  S
C77          H78   1.082       .  S
C79          N80   1.357       .  A
C79          H89   1.082       .  S
N80          C81   1.366       .  A
N80        C3404   1.450       .  S
C81          H87   1.082       .  S
C82          N83   1.359       .  A
C82          H84   1.082       .  S
N83          C85   1.341       .  A
N83        C3414   1.430       .  S
C85          H86   1.082       .  S
C90          C92   1.548       .  S
C90          C94   1.547   1_565  S
C90          C93   1.544       .  S
C90        C3627   1.539   1_565  S
C91          C95   1.547       .  S
C91          C97   1.531       .  S
C91          C96   1.557       .  S
C91        C3394   1.543       .  S
C92         C100   1.377       .  A
C92          C95   1.399       .  A
C93         C104   1.383       .  A
C93          C96   1.394       .  A
C94         C108   1.395       .  A
C94          C97   1.390   1_545  A
C95          C98   1.387       .  A
C96         C102   1.388       .  A
C97         C105   1.369       .  A
C98          N99   1.365       .  A
C98         H111   1.081       .  S
N99         C100   1.360       .  A
N99        C3537   1.451       .  S
C100        H101   1.081       .  S
C102        N103   1.367       .  A
C102        H112   1.081       .  S
N103        C104   1.365       .  A
N103       C3374   1.461       .  S
C104        H110   1.082   1_565  S
C105        N106   1.342   1_565  A
C105        H107   1.082       .  S
N106        C108   1.357       .  A
N106       C3387   1.429       .  S
C108        H109   1.081       .  S
N113        C117   1.353       .  A
N113        C114   1.344       .  A
N113       C3327   1.433       .  S
C114        C115   1.387       .  A
C114       C3344   1.477       .  S
C115        C116   1.389       .  A
C115       C3364   1.457       .  S
C116        C117   1.383       .  A
C116       C3354   1.486       .  S
C117       C3334   1.468       .  S
N118        C122   1.362       .  A
N118        C119   1.362       .  A
N118       C3284   1.415       .  S
C119        C120   1.382       .  A
C119       C3277   1.504       .  S
C120        C121   1.418       .  A
C120       C3304   1.519       .  S
C121        C122   1.413       .  A
C121       C3314   1.459       .  S
C122       C3297   1.555       .  S
C123        C125   1.548       .  S
C123        C127   1.554       .  S
C123        C126   1.574       .  S
C123       C3264   1.628       .  S
C124        C128   1.531       .  S
C124        C130   1.532       .  S
C124        C129   1.555       .  S
C124       C3294   1.615       .  S
C125        C133   1.373       .  A
C125        C128   1.425       .  A
C126        C137   1.396       .  A
C126        C129   1.417       .  A
C127        C141   1.380       .  A
C127        C130   1.414       .  A
C128        C131   1.365       .  A
C129        C135   1.376       .  A
C130        C138   1.362       .  A
C131        N132   1.343       .  A
C131        H144   1.083       .  S
N132        C133   1.352       .  A
N132       C3254   1.411       .  S
C133        H134   1.083       .  S
C135        N136   1.362       .  A
C135        H145   1.076       .  S
N136        C137   1.371       .  A
N136       C3244   1.467       .  S
C137        H143   1.077       .  S
C138        N139   1.359       .  A
C138        H140   1.081       .  S
N139        C141   1.368       .  A
N139       C3357   1.447       .  S
C141        H142   1.080       .  S
N146        C150   1.358       .  A
N146        C147   1.359       .  A
N146       C3204   1.430       .  S
C147        C148   1.392       .  A
C147       C3197   1.480       .  S
C148        C149   1.426       .  A
C148       C3214   1.550       .  S
C149        C150   1.427       .  A
C149       C3237   1.452       .  S
C150       C3224   1.564       .  S
N151        C155   1.353       .  A
N151        C152   1.355       .  A
N151       C3144   1.454       .  S
C152        C153   1.393       .  A
C152       C3154   1.455       .  S
C153        C154   1.405       .  A
C153       C3174   1.524       .  S
C154        C155   1.411       .  A
C154       C3184   1.478       .  S
C155       C3164   1.489       .  S
C156        C158   1.537       .  S
C156        C160   1.538       .  S
C156        C159   1.538       .  S
C156       C3127   1.534       .  S
C157        C161   1.534       .  S
C157        C163   1.537   1_655  S
C157        C162   1.555   1_655  S
C157       C3167   1.540       .  S
C158        C166   1.379       .  A
C158        C161   1.397   1_455  A
C159        C170   1.377       .  A
C159        C162   1.395       .  A
C160        C174   1.388       .  A
C160        C163   1.412       .  A
C161        C164   1.383       .  A
C162        C168   1.383       .  A
C163        C171   1.376       .  A
C164        N165   1.359       .  A
C164        H177   1.083       .  S
N165        C166   1.354   1_655  A
N165       C3134   1.445       .  S
C166        H167   1.081       .  S
C168        N169   1.361       .  A
C168        H178   1.080   1_455  S
N169        C170   1.357       .  A
N169       C3117   1.444       .  S
C170        H176   1.082       .  S
C171        N172   1.345       .  A
C171        H173   1.082       .  S
N172        C174   1.353       .  A
N172       C3347   1.436       .  S
C174        H175   1.083       .  S
C179        C181   1.548       .  S
C179        C183   1.566       .  S
C179        C182   1.561       .  S
C179       C3227   1.593       .  S
C180        C184   1.534       .  S
C180        C186   1.567       .  S
C180        C185   1.555       .  S
C180       C3104   1.590       .  S
C181        C189   1.392       .  A
C181        C184   1.397       .  A
C182        C193   1.386       .  A
C182        C185   1.408       .  A
C183        C197   1.395       .  A
C183        C186   1.425       .  A
C184        C187   1.375       .  A
C185        C191   1.388       .  A
C186        C194   1.398       .  A
C187        N188   1.357       .  A
C187        H200   1.081       .  S
N188        C189   1.367       .  A
N188       C3094   1.454       .  S
C189        H190   1.082       .  S
C191        N192   1.364       .  A
C191        H201   1.081       .  S
N192        C193   1.362       .  A
N192       C3084   1.456       .  S
C193        H199   1.080       .  S
C194        N195   1.363       .  A
C194        H196   1.082       .  S
N195        C197   1.361       .  A
N195       C3177   1.460       .  S
C197        H198   1.082       .  S
C202        C204   1.528       .  S
C202        C206   1.537   1_655  S
C202        C205   1.561       .  S
C202       C3217   1.580       .  S
C203        C207   1.535   1_455  S
C203        C209   1.595       .  S
C203        C208   1.572       .  S
C203       C3067   1.609       .  S
C204        C212   1.380       .  A
C204        C207   1.390       .  A
C205        C216   1.393       .  A
C205        C208   1.422   1_655  A
C206        C220   1.373       .  A
C206        C209   1.419       .  A
C207        C210   1.373       .  A
C208        C214   1.399       .  A
C209        C217   1.414       .  A
C210        N211   1.356       .  A
C210        H223   1.082       .  S
N211        C212   1.358       .  A
N211       C3077   1.439       .  S
C212        H213   1.082       .  S
C214        N215   1.359       .  A
C214        H224   1.082       .  S
N215        C216   1.353   1_455  A
N215       C3054   1.452       .  S
C216        H222   1.078       .  S
C217        N218   1.380       .  A
C217        H219   1.082       .  S
N218        C220   1.351       .  A
N218       C3307   1.462       .  S
C220        H221   1.083       .  S
N225        C229   1.355       .  A
N225        C226   1.349       .  A
N225       C3004   1.433       .  S
C226        C227   1.382       .  A
C226       C3014   1.475       .  S
C227        C228   1.383       .  A
C227       C3037   1.466       .  S
C228        C229   1.390       .  A
C228       C3044   1.486       .  S
C229       C3024   1.466       .  S
N230        C234   1.352       .  A
N230        C231   1.367       .  A
N230       C2957   1.446       .  S
C231        C232   1.407       .  A
C231       C2964   1.469       .  S
C232        C233   1.415       .  A
C232       C2974   1.551       .  S
C233        C234   1.408       .  A
C233       C2997   1.448       .  S
C234       C2984   1.534       .  S
C235        C237   1.536       .  S
C235        C239   1.533       .  S
C235        C238   1.554       .  S
C235       C2944   1.603       .  S
C236        C240   1.545       .  S
C236        C242   1.550       .  S
C236        C241   1.552       .  S
C236       C2977   1.615       .  S
C237        C245   1.368       .  A
C237        C240   1.425       .  A
C238        C249   1.387       .  A
C238        C241   1.425       .  A
C239        C253   1.375       .  A
C239        C242   1.419       .  A
C240        C243   1.382       .  A
C241        C247   1.376       .  A
C242        C250   1.373       .  A
C243        N244   1.351       .  A
C243        H256   1.083       .  S
N244        C245   1.345       .  A
N244       C2934   1.426       .  S
C245        H246   1.083       .  S
C247        N248   1.350       .  A
C247        H257   1.078       .  S
N248        C249   1.353       .  A
N248       C2924   1.441       .  S
C249        H255   1.082       .  S
C250        N251   1.357       .  A
C250        H252   1.080       .  S
N251        C253   1.356       .  A
N251       C3034   1.439       .  S
C253        H254   1.082       .  S
N258        C262   1.345       .  A
N258        C259   1.362       .  A
N258       C2877   1.434       .  S
C259        C260   1.420       .  A
C259       C2884   1.502       .  S
C260        C261   1.422       .  A
C260       C2907   1.525       .  S
C261        C262   1.386       .  A
C261       C2914   1.477       .  S
C262       C2894   1.499       .  S
N263        C267   1.357       .  A
N263        C264   1.364       .  A
N263       C2834   1.431       .  S
C264        C265   1.386       .  A
C264       C2824   1.478       .  S
C265        C266   1.414       .  A
C265       C2844   1.527       .  S
C266        C267   1.416       .  A
C266       C2864   1.450       .  S
C267       C2857   1.555       .  S
C268        C270   1.547   1_554  S
C268        C272   1.556       .  S
C268        C271   1.559       .  S
C268       C2804   1.591       .  S
C269        C273   1.530       .  S
C269        C275   1.519   1_556  S
C269        C274   1.559       .  S
C269       C2847   1.584       .  S
C270        C278   1.381       .  A
C270        C273   1.418       .  A
C271        C282   1.386       .  A
C271        C274   1.410   1_554  A
C272        C286   1.386       .  A
C272        C275   1.400       .  A
C273        C276   1.367       .  A
C274        C280   1.382       .  A
C275        C283   1.357       .  A
C276        N277   1.341       .  A
C276        H289   1.083       .  S
N277        C278   1.353       .  A
N277       C2814   1.418       .  S
C278        H279   1.082       .  S
C280        N281   1.367       .  A
C280        H290   1.078       .  S
N281        C282   1.369   1_556  A
N281       C2794   1.466       .  S
C282        H288   1.079       .  S
C283        N284   1.354       .  A
C283        H285   1.079       .  S
N284        C286   1.368       .  A
N284       C3027   1.444       .  S
C286        H287   1.081       .  S
C291        C293   1.526       .  S
C291        C295   1.541       .  S
C291        C294   1.558       .  S
C291       C2904   1.554       .  S
C292        C296   1.544       .  S
C292        C298   1.601       .  S
C292        C297   1.593       .  S
C292       C2784   1.616       .  S
C293        C301   1.397       .  A
C293        C296   1.390       .  A
C294        C305   1.378       .  A
C294        C297   1.416       .  A
C295        C309   1.384       .  A
C295        C298   1.405       .  A
C296        C299   1.385       .  A
C297        C303   1.414       .  A
C298        C306   1.430       .  A
C299        N300   1.339       .  A
C299        H312   1.081       .  S
N300        C301   1.353       .  A
N300       C2774   1.438       .  S
C301        H302   1.082       .  S
C303        N304   1.382       .  A
C303        H313   1.082       .  S
N304        C305   1.360       .  A
N304       C2764   1.478       .  S
C305        H311   1.077       .  S
C306        N307   1.387       .  A
C306        H308   1.081       .  S
N307        C309   1.358       .  A
N307       C2854   1.496       .  S
C309        H310   1.078       .  S
C314        C316   1.529   1_556  S
C314        C318   1.533       .  S
C314        C317   1.547   1_556  S
C314       C2754   1.558       .  S
C315        C319   1.580       .  S
C315        C321   1.572       .  S
C315        C320   1.550       .  S
C315       C2987   1.584       .  S
C316        C324   1.374       .  A
C316        C319   1.408       .  A
C317        C328   1.376       .  A
C317        C320   1.398       .  A
C318        C332   1.381       .  A
C318        C321   1.410   1_556  A
C319        C322   1.413       .  A
C320        C326   1.385       .  A
C321        C329   1.399   1_554  A
C322        N323   1.370       .  A
C322        H335   1.082       .  S
N323        C324   1.343       .  A
N323       C2744   1.452       .  S
C324        H325   1.083       .  S
C326        N327   1.367       .  A
C326        H336   1.080       .  S
N327        C328   1.361       .  A
N327       C2737   1.456       .  S
C328        H334   1.080   1_554  S
C329        N330   1.364       .  A
C329        H331   1.082   1_556  S
N330        C332   1.354       .  A
N330       C2897   1.451       .  S
C332        H333   1.082       .  S
N337        C341   1.349       .  A
N337        C338   1.356       .  A
N337       C2687   1.430       .  S
C338        C339   1.394       .  A
C338       C2694   1.494       .  S
C339        C340   1.382       .  A
C339       C2704   1.456       .  S
C340        C341   1.373       .  A
C340       C2724   1.468       .  S
C341       C2714   1.476       .  S
N342        C346   1.337       .  A
N342        C343   1.349       .  A
N342       C2644   1.421       .  S
C343        C344   1.383       .  A
C343       C2634   1.447       .  S
C344        C345   1.388       .  A
C344       C2654   1.506       .  S
C345        C346   1.390       .  A
C345       C2674   1.429       .  S
C346       C2664   1.502       .  S
N347        C351   1.368       .  A
N347        C348   1.353       .  A
N347       C2594   1.421       .  S
C348        C349   1.364       .  A
C348       C2584   1.492       .  S
C349        C350   1.387       .  A
C349       C2604   1.465       .  S
C350        C351   1.405       .  A
C350       C2624   1.475       .  S
C351       C2614   1.518       .  S
N352        C356   1.356       .  A
N352        C353   1.361       .  A
N352       C2534   1.415       .  S
C353        C354   1.368       .  A
C353       C2547   1.468       .  S
C354        C355   1.432       .  A
C354       C2564   1.565       .  S
C355        C356   1.445       .  A
C355       C2574   1.444       .  S
C356       C2554   1.594       .  S
C357        C359   1.521       .  S
C357        C361   1.549       .  S
C357        C360   1.600       .  S
C357       C2524   1.640       .  S
C358        C362   1.545       .  S
C358        C364   1.538       .  S
C358        C363   1.598       .  S
C358       C2557   1.637       .  S
C359        C367   1.350       .  A
C359        C362   1.407       .  A
C360        C371   1.410       .  A
C360        C363   1.434       .  A
C361        C375   1.383       .  A
C361        C364   1.423       .  A
C362        C365   1.388       .  A
C363        C369   1.410       .  A
C364        C372   1.364       .  A
C365        N366   1.363       .  A
C365        H378   1.082       .  S
N366        C367   1.344       .  A
N366       C2514   1.428       .  S
C367        H368   1.083       .  S
C369        N370   1.377       .  A
C369        H379   1.079       .  S
N370        C371   1.377       .  A
N370       C2504   1.496       .  S
C371        H377   1.082       .  S
C372        N373   1.347       .  A
C372        H374   1.083       .  S
N373        C375   1.359       .  A
N373       C2607   1.426       .  S
C375        H376   1.082       .  S
C380        C382   1.555   1_556  S
C380        C384   1.559       .  S
C380        C383   1.577   1_556  S
C380       C2567   1.605       .  S
C381        C385   1.538       .  S
C381        C387   1.516       .  S
C381        C386   1.549       .  S
C381       C2494   1.585       .  S
C382        C390   1.380       .  A
C382        C385   1.424       .  A
C383        C394   1.399       .  A
C383        C386   1.414       .  A
C384        C398   1.397       .  A
C384        C387   1.403   1_556  A
C385        C388   1.378       .  A
C386        C392   1.381       .  A
C387        C395   1.355       .  A
C388        N389   1.355       .  A
C388        H401   1.082       .  S
N389        C390   1.357       .  A
N389       C2717   1.444       .  S
C390        H391   1.080       .  S
C392        N393   1.356       .  A
C392        H402   1.082       .  S
N393        C394   1.367       .  A
N393       C2474   1.452       .  S
C394        H400   1.079   1_554  S
C395        N396   1.342   1_554  A
C395        H397   1.083       .  S
N396        C398   1.367       .  A
N396       C2484   1.432       .  S
C398        H399   1.082       .  S
C403        C405   1.505       .  S
C403        C407   1.529       .  S
C403        C406   1.551       .  S
C403       C2617   1.547       .  S
C404        C408   1.541   1_554  S
C404        C410   1.575       .  S
C404        C409   1.547       .  S
C404       C2464   1.563       .  S
C405        C413   1.363       .  A
C405        C408   1.379       .  A
C406        C417   1.384       .  A
C406        C409   1.415   1_556  A
C407        C421   1.365   1_556  A
C407        C410   1.423   1_556  A
C408        C411   1.382       .  A
C409        C415   1.387       .  A
C410        C418   1.405       .  A
C411        N412   1.363       .  A
C411        H424   1.082       .  S
N412        C413   1.352       .  A
N412       C2454   1.435       .  S
C413        H414   1.083       .  S
C415        N416   1.357       .  A
C415        H425   1.082       .  S
N416        C417   1.355   1_554  A
N416       C2444   1.448       .  S
C417        H423   1.079       .  S
C418        N419   1.366       .  A
C418        H420   1.082       .  S
N419        C421   1.340       .  A
N419       C2667   1.437       .  S
C421        H422   1.084   1_554  S
C426        C428   1.542       .  S
C426        C430   1.544       .  S
C426        C429   1.569       .  S
C426       C2424   1.526       .  S
C427        C431   1.534       .  S
C427        C433   1.539       .  S
C427        C432   1.534       .  S
C427       C2707   1.520       .  S
C428        C436   1.388       .  A
C428        C431   1.386       .  A
C429        C440   1.404       .  A
C429        C432   1.393       .  A
C430        C444   1.385       .  A
C430        C433   1.407       .  A
C431        C434   1.384       .  A
C432        C438   1.365       .  A
C433        C441   1.392       .  A
C434        N435   1.358       .  A
C434        H447   1.082       .  S
N435        C436   1.360       .  A
N435       C2657   1.443       .  S
C436        H437   1.083       .  S
C438        N439   1.351       .  A
C438        H448   1.081       .  S
N439        C440   1.372       .  A
N439       C2414   1.455       .  S
C440        H446   1.079       .  S
C441        N442   1.347       .  A
C441        H443   1.082       .  S
N442        C444   1.349       .  A
N442       C2434   1.436       .  S
C444        H445   1.083       .  S
N449        C453   1.359       .  A
N449        C450   1.357       .  A
N449       C2374   1.421       .  S
C450        C451   1.409       .  A
C450       C2384   1.546       .  S
C451        C452   1.392       .  A
C451       C2404   1.424       .  S
C452        C453   1.369       .  A
C452       C2397   1.522       .  S
C453       C2364   1.457       .  S
N454        C458   1.356       .  A
N454        C455   1.357       .  A
N454       C2317   1.454       .  S
C455        C456   1.398       .  A
C455       C2327   1.468       .  S
C456        C457   1.401       .  A
C456       C2347   1.510       .  S
C457        C458   1.406       .  A
C457       C2357   1.488       .  S
C458       C2334   1.484       .  S
N459        C463   1.344       .  A
N459        C460   1.352       .  A
N459       C2264   1.412       .  S
C460        C461   1.372       .  A
C460       C2274   1.466       .  S
C461        C462   1.394       .  A
C461       C2294   1.497       .  S
C462        C463   1.382       .  A
C462       C2304   1.430       .  S
C463       C2284   1.503       .  S
N464        C468   1.361       .  A
N464        C465   1.368       .  A
N464       C2214   1.473       .  S
C465        C466   1.399       .  A
C465       C2224   1.453       .  S
C466        C467   1.402       .  A
C466       C2244   1.532       .  S
C467        C468   1.414       .  A
C467       C2254   1.484       .  S
C468       C2234   1.494       .  S
C469        C471   1.540       .  S
C469        C473   1.545       .  S
C469        C472   1.561       .  S
C469       C2194   1.546       .  S
C470        C474   1.558       .  S
C470        C476   1.567       .  S
C470        C475   1.531       .  S
C470       C2287   1.551       .  S
C471        C479   1.389       .  A
C471        C474   1.389       .  A
C472        C483   1.395       .  A
C472        C475   1.388       .  A
C473        C487   1.368       .  A
C473        C476   1.407       .  A
C474        C477   1.384       .  A
C475        C481   1.372       .  A
C476        C484   1.413       .  A
C477        N478   1.365       .  A
C477        H490   1.078       .  S
N478        C479   1.368       .  A
N478       C2237   1.464       .  S
C479        H480   1.081       .  S
C481        N482   1.359       .  A
C481        H491   1.079       .  S
N482        C483   1.370       .  A
N482       C2184   1.459       .  S
C483        H489   1.082       .  S
C484        N485   1.374       .  A
C484        H486   1.082       .  S
N485        C487   1.346       .  A
N485       C2204   1.461       .  S
C487        H488   1.079       .  S
C492        C494   1.567   1_565  S
C492        C496   1.569       .  S
C492        C495   1.539   1_565  S
C492       C2247   1.585       .  S
C493        C497   1.560       .  S
C493        C499   1.541       .  S
C493        C498   1.549       .  S
C493       C2174   1.578       .  S
C494        C502   1.390       .  A
C494        C497   1.417       .  A
C495        C506   1.381   1_545  A
C495        C498   1.401       .  A
C496        C510   1.413       .  A
C496        C499   1.408   1_565  A
C497        C500   1.401       .  A
C498        C504   1.381       .  A
C499        C507   1.374       .  A
C500        N501   1.370       .  A
C500        H513   1.082       .  S
N501        C502   1.362       .  A
N501       C2394   1.472       .  S
C502        H503   1.080       .  S
C504        N505   1.356       .  A
C504        H514   1.082       .  S
N505        C506   1.358   1_545  A
N505       C2154   1.436       .  S
C506        H512   1.082       .  S
C507        N508   1.342   1_545  A
C507        H509   1.081       .  S
N508        C510   1.368       .  A
N508       C2164   1.452       .  S
C510        H511   1.082       .  S
C515        C517   1.562   1_545  S
C515        C519   1.576       .  S
C515        C518   1.543       .  S
C515       C2344   1.559       .  S
C516        C520   1.518       .  S
C516        C522   1.533       .  S
C516        C521   1.553       .  S
C516       C2134   1.545       .  S
C517        C525   1.398       .  A
C517        C520   1.388       .  A
C518        C529   1.382       .  A
C518        C521   1.400   1_545  A
C519        C533   1.408       .  A
C519        C522   1.408   1_545  A
C520        C523   1.368       .  A
C521        C527   1.384       .  A
C522        C530   1.370   1_565  A
C523        N524   1.357       .  A
C523        H536   1.082       .  S
N524        C525   1.372       .  A
N524       C2297   1.456       .  S
C525        H526   1.081       .  S
C527        N528   1.357       .  A
C527        H537   1.080       .  S
N528        C529   1.359   1_565  A
N528       C2124   1.442       .  S
C529        H535   1.082       .  S
C530        N531   1.349       .  A
C530        H532   1.078   1_545  S
N531        C533   1.370       .  A
N531       C2144   1.462       .  S
C533        H534   1.079       .  S
C538        C540   1.543       .  S
C538        C542   1.555       .  S
C538        C541   1.535       .  S
C538       C2387   1.562       .  S
C539        C543   1.540       .  S
C539        C545   1.537       .  S
C539        C544   1.550       .  S
C539       C2104   1.554       .  S
C540        C548   1.387       .  A
C540        C543   1.411       .  A
C541        C552   1.368       .  A
C541        C544   1.407       .  A
C542        C556   1.384       .  A
C542        C545   1.397       .  A
C543        C546   1.375       .  A
C544        C550   1.388       .  A
C545        C553   1.386       .  A
C546        N547   1.356       .  A
C546        H559   1.080       .  S
N547        C548   1.359       .  A
N547       C2117   1.453       .  S
C548        H549   1.079       .  S
C550        N551   1.358       .  A
C550        H560   1.082       .  S
N551        C552   1.350       .  A
N551       C2094   1.437       .  S
C552        H558   1.082       .  S
C553        N554   1.362       .  A
C553        H555   1.081       .  S
N554        C556   1.358       .  A
N554       C2337   1.457       .  S
C556        H557   1.074       .  S
O561       Ni567   1.893       .  S
O561        C582   1.266       .  A
O562       Ni585   1.867       .  S
O562        C571   1.259       .  A
O563       Ni567   1.914       .  S
O563       Ni585   1.890       .  S
O563       Ni579   1.917       .  S
O563        H586   0.974       .  S
C564       C2084   1.467       .  S
C564        O581   1.266       .  A
C564        O573   1.263       .  A
O565       Ni584   1.901       .  S
O565        C571   1.268       .  A
O566       Ni584   1.887       .  S
O566        C568   1.268       .  A
Ni567       O570   1.925       .  S
Ni567       O572   1.908       .  S
C568       C2074   1.478       .  S
C568        O578   1.279       .  A
O569       Ni585   1.894       .  S
O569        C575   1.262       .  A
O570        C575   1.270       .  A
C571       C2064   1.452       .  S
O572        C574   1.269       .  A
O573       Ni584   1.903       .  S
C574       C2597   1.450       .  S
C574        O580   1.269       .  A
C575       C2277   1.443       .  S
H576        O577   0.975       .  S
O577       Ni585   1.904       .  S
O577       Ni579   1.899       .  S
O577       Ni584   1.894       .  S
O578       Ni579   1.953       .  S
Ni579       O583   1.880       .  S
Ni579       O581   1.919       .  S
O580       Ni585   1.923       .  S
C582       C2054   1.455       .  S
C582        O583   1.265       .  A
O587       Ni593   1.884       .  S
O587        C608   1.259       .  A
O588       Ni611   1.912       .  S
O588        C597   1.268       .  A
O589       Ni593   1.885       .  S
O589       Ni611   1.886       .  S
O589       Ni605   1.937       .  S
O589        H612   0.966       .  S
C590       C2024   1.473       .  S
C590        O607   1.290       .  A
C590        O599   1.278       .  A
O591       Ni610   1.901       .  S
O591        C597   1.263       .  A
O592       Ni610   1.892       .  S
O592        C594   1.262       .  A
Ni593       O596   1.904       .  S
Ni593       O598   1.902       .  S
C594       C2047   1.480       .  S
C594        O604   1.279       .  A
O595       Ni611   1.926       .  S
O595        C601   1.282       .  A
O596        C601   1.279       .  A
C597       C2324   1.453       .  S
O598        C600   1.264       .  A
O599       Ni610   1.897       .  S
C600       C3147   1.493       .  S
C600        O606   1.276       .  A
C601       C2544   1.471       .  S
H602        O603   0.967       .  S
O603       Ni611   1.918       .  S
O603       Ni605   1.899       .  S
O603       Ni610   1.888       .  S
O604       Ni605   1.959       .  S
Ni605       O609   1.952       .  S
Ni605       O607   1.950       .  S
O606       Ni611   1.956       .  S
C608       C2034   1.479       .  S
C608        O609   1.276       .  A
N613        C617   1.358       .  A
N613        C614   1.345       .  A
N613       C2127   1.446       .  S
C614        C615   1.382       .  A
C614       C2027   1.470   1_565  S
C615        C616   1.391       .  A
C615       C3137   1.469   1_565  S
C616        C617   1.401       .  A
C616       C2014   1.487       .  S
C617       C2077   1.477       .  S
N618        C622   1.339       .  A
N618        C619   1.348       .  A
N618       C3114   1.437       .  S
C619        C620   1.392       .  A
C619       C2007   1.450       .  S
C620        C621   1.402       .  A
C620       C2757   1.500       .  S
C621        C622   1.391       .  A
C621       C2487   1.465       .  S
C622       C2037   1.483   1_455  S
O623       Ni629   1.902       .  S
O623        C644   1.269       .  A
O624       Ni647   1.921       .  S
O624        C633   1.263       .  A
O625       Ni629   1.903       .  S
O625       Ni647   1.911       .  S
O625       Ni641   1.939       .  S
O625        H648   0.965       .  S
C626       C2004   1.467       .  S
C626        O643   1.286       .  A
C626        O635   1.279       .  A
O627       Ni646   1.886       .  S
O627        C633   1.255       .  A
O628       Ni646   1.876       .  S
O628        C630   1.258       .  A
Ni629       O632   1.933       .  S
Ni629       O634   1.885       .  S
C630       C1984   1.477       .  S
C630        O640   1.271       .  A
O631       Ni647   1.863       .  S
O631        C637   1.256       .  A
O632        C637   1.267       .  A
C633       C1994   1.464       .  S
O634        C636   1.267       .  A
O635       Ni646   1.891       .  S
C636       C2874   1.466       .  S
C636        O642   1.282       .  A
C637       C2367   1.437       .  S
H638        O639   0.963       .  S
O639       Ni647   1.887       .  S
O639       Ni641   1.869       .  S
O639       Ni646   1.871       .  S
O640       Ni641   1.939       .  S
Ni641       O645   1.901       .  S
Ni641       O643   1.928       .  S
O642       Ni647   1.963       .  S
C644       C3324   1.458       .  S
C644        O645   1.269       .  A
N649        C653   1.352       .  A
N649        C650   1.350   1_545  A
N649       C2157   1.440       .  S
C650        C651   1.390   1_565  A
C650       C1977   1.479       .  S
C651        C652   1.393       .  A
C651       C1967   1.480   1_545  S
C652        C653   1.388       .  A
C652       C3124   1.478       .  S
C653       C1987   1.467       .  S
O654       Ni660   1.903       .  S
O654        C675   1.263       .  A
O655       Ni678   1.852       .  S
O655        C664   1.255       .  A
O656       Ni660   1.894       .  S
O656       Ni678   1.871       .  S
O656       Ni672   1.877       .  S
O656        H679   0.964       .  S
C657       C1957   1.460       .  S
C657        O674   1.262       .  A
C657        O666   1.282       .  A
O658       Ni677   1.965       .  S
O658        C664   1.282       .  A
O659       Ni677   1.909       .  S
O659        C661   1.272       .  A
Ni660       O663   1.903       .  S
Ni660       O665   1.906       .  S
C661       C1974   1.479       .  S
C661        O671   1.272       .  A
O662       Ni678   1.901       .  S
O662        C668   1.275       .  A
O663        C668   1.277       .  A
C664       C1944   1.478       .  S
O665        C667   1.264       .  A
O666       Ni677   1.953       .  S
C667       C2827   1.471       .  S
C667        O673   1.264       .  A
C668       C1934   1.461       .  S
H669        O670   0.967       .  S
O670       Ni678   1.895       .  S
O670       Ni672   1.900       .  S
O670       Ni677   1.910       .  S
O671       Ni672   1.929       .  S
Ni672       O676   1.898       .  S
Ni672       O674   1.847       .  S
O673       Ni678   1.918       .  S
C675       C2227   1.453       .  S
C675        O676   1.263       .  A
N680        C684   1.348       .  A
N680        C681   1.351   1_455  A
N680       C1927   1.434   1_455  S
C681        C682   1.393       .  A
C681       C2087   1.466       .  S
C682        C683   1.383   1_655  A
C682       C2457   1.478       .  S
C683        C684   1.382       .  A
C683       C2817   1.471       .  S
C684       C1947   1.470       .  S
N685        C689   1.346   1_554  A
N685        C686   1.337       .  A
N685       C2797   1.455       .  S
C686        C687   1.386       .  A
C686       C1917   1.440       .  S
C687        C688   1.403       .  A
C687       C3397   1.487       .  S
C688        C689   1.397   1_554  A
C688       C2167   1.488   1_554  S
C689       C1954   1.458       .  S
O690       Ni696   1.923       .  S
O690        C711   1.272       .  A
O691       Ni714   1.884       .  S
O691        C700   1.261       .  A
O692       Ni696   1.882       .  S
O692       Ni714   1.875       .  S
O692       Ni708   1.923       .  S
O692        H715   0.965       .  S
C693       C3517   1.488       .  S
C693        O710   1.284       .  A
C693        O702   1.281       .  A
O694       Ni713   1.906       .  S
O694        C700   1.264       .  A
O695       Ni713   1.891       .  S
O695        C697   1.260       .  A
Ni696       O699   1.935       .  S
Ni696       O701   1.909       .  S
C697       C3007   1.479       .  S
C697        O707   1.265       .  A
O698       Ni714   1.921       .  S
O698        C704   1.276       .  A
O699        C704   1.282       .  A
C700       C1914   1.448       .  S
O701        C703   1.267       .  A
O702       Ni713   1.926       .  S
C703       C1904   1.475       .  S
C703        O709   1.275       .  A
C704       C1894   1.492       .  S
H705        O706   0.963       .  S
O706       Ni714   1.916       .  S
O706       Ni708   1.879       .  S
O706       Ni713   1.891       .  S
O707       Ni708   1.920       .  S
Ni708       O712   1.872       .  S
Ni708       O710   1.936       .  S
O709       Ni714   1.941       .  S
C711       C1884   1.443       .  S
C711        O712   1.262       .  A
N716        C720   1.359       .  A
N716        C717   1.364   1_655  A
N716       C1864   1.475       .  S
C717        C718   1.415       .  A
C717       C1897   1.481       .  S
C718        C719   1.437   1_455  A
C718       C2807   1.538       .  S
C719        C720   1.416       .  A
C719       C2467   1.517       .  S
C720       C1877   1.497       .  S
O721       Ni727   1.932       .  S
O721        C742   1.275       .  A
O722       Ni745   1.873       .  S
O722        C731   1.256       .  A
O723       Ni727   1.911       .  S
O723       Ni745   1.879       .  S
O723       Ni739   1.894       .  S
O723        H746   0.962       .  S
C724       C1834   1.444       .  S
C724        O741   1.262       .  A
C724        O733   1.263       .  A
O725       Ni744   1.886       .  S
O725        C731   1.263       .  A
O726       Ni744   1.905       .  S
O726        C728   1.270       .  A
Ni727       O730   1.943       .  S
Ni727       O732   1.920       .  S
C728       C3464   1.474       .  S
C728        O738   1.278       .  A
O729       Ni745   1.864       .  S
O729        C735   1.261       .  A
O730        C735   1.279       .  A
C731       C2647   1.429       .  S
O732        C734   1.273       .  A
O733       Ni744   1.909       .  S
C734       C1874   1.498       .  S
C734        O740   1.273       .  A
C735       C1844   1.474       .  S
H736        O737   0.969       .  S
O737       Ni745   1.915       .  S
O737       Ni739   1.897       .  S
O737       Ni744   1.916       .  S
O738       Ni739   1.951       .  S
Ni739       O743   1.858       .  S
Ni739       O741   1.892       .  S
O740       Ni745   1.936       .  S
C742       C1854   1.465       .  S
C742        O743   1.259       .  A
N747        C751   1.349   1_554  A
N747        C748   1.335       .  A
N747       C2447   1.447       .  S
C748        C749   1.381       .  A
C748       C1847   1.462       .  S
C749        C750   1.396   1_554  A
C749       C3457   1.454       .  S
C750        C751   1.404       .  A
C750       C2137   1.515       .  S
C751       C2067   1.440       .  S
O752       Ni758   1.899       .  S
O752        C773   1.261       .  A
O753       Ni776   1.942       .  S
O753        C762   1.278       .  A
O754       Ni758   1.895       .  S
O754       Ni776   1.915       .  S
O754       Ni770   1.948       .  S
O754        H777   0.965       .  S
C755       C1807   1.494       .  S
C755        O772   1.293       .  A
C755        O764   1.279       .  A
O756       Ni775   1.917       .  S
O756        C762   1.267       .  A
O757       Ni775   1.904       .  S
O757        C759   1.266       .  A
Ni758       O761   1.910       .  S
Ni758       O763   1.888       .  S
C759       C1827   1.492       .  S
C759        O769   1.275       .  A
O760       Ni776   1.964       .  S
O760        C766   1.288       .  A
O761        C766   1.276       .  A
C762       C2954   1.480       .  S
O763        C765   1.264       .  A
O764       Ni775   1.924       .  S
C765       C3597   1.489       .  S
C765        O771   1.277       .  A
C766       C3274   1.499       .  S
H767        O768   0.966       .  S
O768       Ni776   1.922       .  S
O768       Ni770   1.912       .  S
O768       Ni775   1.896       .  S
O769       Ni770   1.944       .  S
Ni770       O774   1.970       .  S
Ni770       O772   1.965       .  S
O771       Ni776   1.946       .  S
C773       C1814   1.503       .  S
C773        O774   1.279       .  A
N778        C782   1.355   1_655  A
N778        C779   1.363       .  A
N778       C3057   1.461   1_655  S
C779        C780   1.407       .  A
C779       C1794   1.473       .  S
C780        C781   1.422   1_655  A
C780       C2497   1.527       .  S
C781        C782   1.411       .  A
C781       C2747   1.499       .  S
C782       C1824   1.498       .  S
N783        C787   1.351       .  A
N783        C784   1.349   1_565  A
N783       C3377   1.454       .  S
C784        C785   1.423       .  A
C784       C1817   1.503       .  S
C785        C786   1.485   1_545  A
C785       C3064   1.554       .  S
C786        C787   1.417       .  A
C786       C1784   1.566       .  S
C787       C1907   1.487       .  S
N788        C792   1.355   1_554  A
N788        C789   1.349       .  A
N788       C2734   1.441       .  S
C789        C790   1.402       .  A
C789       C1804   1.509       .  S
C790        C791   1.411   1_554  A
C790       C3384   1.461       .  S
C791        C792   1.391       .  A
C791       C2177   1.526       .  S
C792       C1997   1.450       .  S
N793        C797   1.347   1_545  A
N793        C794   1.349       .  A
N793       C3437   1.446       .  S
C794        C795   1.396       .  A
C794       C1774   1.461       .  S
C795        C796   1.389   1_545  A
C795       C3074   1.475       .  S
C796        C797   1.387       .  A
C796       C1764   1.487       .  S
C797       C1857   1.457       .  S
O798       Ni804   1.937       .  S
O798        C819   1.275       .  A
O799       Ni822   1.919       .  S
O799        C808   1.270       .  A
O800       Ni804   1.904       .  S
O800       Ni822   1.911       .  S
O800       Ni816   1.909       .  S
O800        H823   0.957       .  S
C801       C1777   1.466       .  S
C801        O818   1.280       .  A
C801        O810   1.273       .  A
O802       Ni821   1.918       .  S
O802        C808   1.268       .  A
O803       Ni821   1.897       .  S
O803        C805   1.265       .  A
Ni804       O807   1.942       .  S
Ni804       O809   1.911       .  S
C805       C1754   1.483       .  S
C805        O815   1.273       .  A
O806       Ni822   1.883       .  S
O806        C812   1.267       .  A
O807        C812   1.276       .  A
C808       C1797   1.480       .  S
O809        C811   1.270       .  A
O810       Ni821   1.890       .  S
C811       C3194   1.471       .  S
C811        O817   1.276       .  A
C812       C2684   1.453       .  S
H813        O814   0.955       .  S
O814       Ni822   1.888       .  S
O814       Ni816   1.898       .  S
O814       Ni821   1.885       .  S
O815       Ni816   1.930       .  S
Ni816       O820   1.916       .  S
Ni816       O818   1.923       .  S
O817       Ni822   1.945       .  S
C819       C3647   1.476       .  S
C819        O820   1.273       .  A
N824        C828   1.362       .  A
N824        C825   1.351       .  A
N824       C2477   1.454       .  S
C825        C826   1.405       .  A
C825       C2044   1.498   1_554  S
C826        C827   1.415       .  A
C826       C2147   1.488   1_554  S
C827        C828   1.402       .  A
C827       C3447   1.523       .  S
C828       C1757   1.470       .  S
N829        C833   1.340       .  A
N829        C830   1.355       .  A
N829       C1714   1.433       .  S
C830        C831   1.395       .  A
C830       C1887   1.454       .  S
C831        C832   1.390       .  A
C831       C1734   1.517       .  S
C832        C833   1.383       .  A
C832       C1744   1.437       .  S
C833       C1724   1.488       .  S
N834        C838   1.343       .  A
N834        C835   1.356       .  A
N834       C1674   1.448       .  S
C835        C836   1.390       .  A
C835       C1937   1.447       .  S
C836        C837   1.387       .  A
C836       C1697   1.498       .  S
C837        C838   1.391       .  A
C837       C1707   1.459       .  S
C838       C1684   1.473       .  S
N839        C843   1.335       .  A
N839        C840   1.352       .  A
N839       C1634   1.430       .  S
C840        C841   1.382       .  A
C840       C2057   1.452       .  S
C841        C842   1.378       .  A
C841       C1657   1.479       .  S
C842        C843   1.373       .  A
C842       C1664   1.440       .  S
C843       C1644   1.465       .  S
N844        C848   1.361       .  A
N844        C845   1.372       .  A
N844       C1594   1.455       .  S
C845        C846   1.399       .  A
C845       C1837   1.458       .  S
C846        C847   1.435       .  A
C846       C1614   1.589       .  S
C847        C848   1.439       .  A
C847       C1624   1.459       .  S
C848       C1604   1.572       .  S
C849        C851   1.531       .  S
C849        C853   1.527       .  S
C849        C852   1.570       .  S
C849       C1607   1.630       .  S
C850        C854   1.557       .  S
C850        C856   1.547       .  S
C850        C855   1.575       .  S
C850       C1587   1.643       .  S
C851        C859   1.353       .  A
C851        C854   1.435       .  A
C852        C863   1.390       .  A
C852        C855   1.422       .  A
C853        C867   1.366       .  A
C853        C856   1.423       .  A
C854        C857   1.388       .  A
C855        C861   1.396       .  A
C856        C864   1.368       .  A
C857        N858   1.358       .  A
C857        H870   1.082       .  S
N858        C859   1.345       .  A
N858       C1647   1.426       .  S
C859        H860   1.083       .  S
C861        N862   1.364       .  A
C861        H871   1.076       .  S
N862        C863   1.363       .  A
N862       C1564   1.467       .  S
C863        H869   1.076       .  S
C864        N865   1.351       .  A
C864        H866   1.083       .  S
N865        C867   1.344       .  A
N865       C1574   1.408       .  S
C867        H868   1.083       .  S
C872        C874   1.531   1_455  S
C872        C876   1.570       .  S
C872        C875   1.563       .  S
C872       C1787   1.623       .  S
C873        C877   1.553       .  S
C873        C879   1.561   1_655  S
C873        C878   1.590       .  S
C873       C1617   1.633       .  S
C874        C882   1.367       .  A
C874        C877   1.408       .  A
C875        C886   1.387       .  A
C875        C878   1.419   1_455  A
C876        C890   1.397       .  A
C876        C879   1.424       .  A
C877        C880   1.391       .  A
C878        C884   1.404       .  A
C879        C887   1.385       .  A
C880        N881   1.363       .  A
C880        H893   1.082       .  S
N881        C882   1.349       .  A
N881       C1767   1.436       .  S
C882        H883   1.082       .  S
C884        N885   1.376       .  A
C884        H894   1.073       .  S
N885        C886   1.369   1_655  A
N885       C1867   1.484       .  S
C886        H892   1.076       .  S
C887        N888   1.359       .  A
C887        H889   1.082       .  S
N888        C890   1.367       .  A
N888       C1737   1.454       .  S
C890        H891   1.082       .  S
C895        C897   1.524   1_655  S
C895        C899   1.540       .  S
C895        C898   1.534       .  S
C895       C2017   1.542       .  S
C896        C900   1.554       .  S
C896        C902   1.556       .  S
C896        C901   1.541       .  S
C896       C1694   1.558       .  S
C897        C905   1.367       .  A
C897        C900   1.388       .  A
C898        C909   1.377       .  A
C898        C901   1.390   1_655  A
C899        C913   1.380       .  A
C899        C902   1.424   1_655  A
C900        C903   1.390       .  A
C901        C907   1.374       .  A
C902        C910   1.386   1_455  A
C903        N904   1.370       .  A
C903        H916   1.078       .  S
N904        C905   1.357       .  A
N904       C1964   1.455       .  S
C905        H906   1.080       .  S
C907        N908   1.357       .  A
C907        H917   1.081       .  S
N908        C909   1.357   1_455  A
N908       C1924   1.437   1_455  S
C909        H915   1.081       .  S
C910        N911   1.355       .  A
C910        H912   1.081   1_655  S
N911        C913   1.352       .  A
N911       C1654   1.443       .  S
C913        H914   1.083       .  S
C918        C920   1.517       .  S
C918        C922   1.533       .  S
C918        C921   1.560       .  S
C918       C1727   1.536       .  S
C919        C923   1.541       .  S
C919        C925   1.554       .  S
C919        C924   1.541       .  S
C919       C1544   1.537       .  S
C920        C928   1.367       .  A
C920        C923   1.378       .  A
C921        C932   1.389       .  A
C921        C924   1.403       .  A
C922        C936   1.369       .  A
C922        C925   1.411       .  A
C923        C926   1.381       .  A
C924        C930   1.378       .  A
C925        C933   1.396       .  A
C926        N927   1.364       .  A
C926        H939   1.081       .  S
N927        C928   1.356       .  A
N927       C1554   1.445       .  S
C928        H929   1.080       .  S
C930        N931   1.356       .  A
C930        H940   1.082       .  S
N931        C932   1.361       .  A
N931       C1534   1.444       .  S
C932        H938   1.078       .  S
C933        N934   1.360       .  A
C933        H935   1.081       .  S
N934        C936   1.348       .  A
N934       C1687   1.444       .  S
C936        H937   1.082       .  S
N941        C945   1.353       .  A
N941        C942   1.358       .  A
N941       C3247   1.450       .  S
C942        C943   1.417       .  A
C942       C1514   1.492       .  S
C943        C944   1.404       .  A
C943       C2114   1.496       .  S
C944        C945   1.384       .  A
C944       C3577   1.499       .  S
C945       C1524   1.469       .  S
N946        C950   1.342       .  A
N946        C947   1.351       .  A
N946       C2927   1.443       .  S
C947        C948   1.384       .  A
C947       C1494   1.452       .  S
C948        C949   1.378       .  A
C948       C1557   1.478       .  S
C949        C950   1.382       .  A
C949       C3257   1.456       .  S
C950       C1504   1.462       .  S
N951        C955   1.342       .  A
N951        C952   1.349       .  A
N951       C3567   1.437       .  S
C952        C953   1.389       .  A
C952       C1474   1.458       .  S
C953        C954   1.382       .  A
C953       C2437   1.479       .  S
C954        C955   1.379       .  A
C954       C2937   1.453       .  S
C955       C1484   1.467       .  S
O956       Ni962   1.899       .  S
O956        C977   1.260       .  A
O957       Ni980   1.925       .  S
O957        C966   1.276       .  A
O958       Ni962   1.863       .  S
O958       Ni980   1.881       .  S
O958       Ni974   1.894       .  S
O958        H981   0.965       .  S
C959       C3604   1.464       .  S
C959        O976   1.278       .  A
C959        O968   1.279       .  A
O960       Ni979   1.902       .  S
O960        C966   1.262       .  A
O961       Ni979   1.897       .  S
O961        C963   1.259       .  A
Ni962       O965   1.904       .  S
Ni962       O967   1.870       .  S
C963       C2967   1.481       .  S
C963        O973   1.267       .  A
O964       Ni980   1.910       .  S
O964        C970   1.286       .  A
O965        C970   1.281       .  A
C966       C1487   1.473       .  S
O967        C969   1.259       .  A
O968       Ni979   1.904       .  S
C969       C1527   1.450       .  S
C969        O975   1.268       .  A
C970       C1507   1.441       .  S
H971        O972   0.968       .  S
O972       Ni980   1.920       .  S
O972       Ni974   1.886       .  S
O972       Ni979   1.876       .  S
O973       Ni974   1.932       .  S
Ni974       O978   1.902       .  S
Ni974       O976   1.914       .  S
O975       Ni980   1.931       .  S
C977       C3287   1.441       .  S
C977        O978   1.267       .  A
O982       Ni988   1.943       .  S
O982       C1003   1.277       .  A
O983      Ni1006   1.855       .  S
O983        C992   1.271       .  A
O984       Ni988   1.887       .  S
O984      Ni1006   1.874       .  S
O984      Ni1000   1.881       .  S
O984       H1007   0.968       .  S
C985       C1477   1.461       .  S
C985       O1002   1.275       .  A
C985        O994   1.277       .  A
O986      Ni1005   1.922       .  S
O986        C992   1.270       .  A
O987      Ni1005   1.915       .  S
O987        C989   1.266       .  A
Ni988       O991   1.937       .  S
Ni988       O993   1.910       .  S
C989       C1454   1.486       .  S
C989        O999   1.266       .  A
O990      Ni1006   1.890       .  S
O990        C996   1.270       .  A
O991        C996   1.279       .  A
C992       C1464   1.444       .  S
O993        C995   1.272       .  A
O994      Ni1005   1.906       .  S
C995       C2697   1.504       .  S
C995       O1001   1.283       .  A
C996       C3207   1.454       .  S
H997        O998   0.966       .  S
O998      Ni1006   1.882       .  S
O998      Ni1000   1.864       .  S
O998      Ni1005   1.899       .  S
O999      Ni1000   1.929       .  S
Ni1000     O1004   1.831       .  S
Ni1000     O1002   1.914       .  S
O1001     Ni1006   1.972       .  S
C1003      C3654   1.429       .  S
C1003      O1004   1.254       .  A
O1008     Ni1014   1.905       .  S
O1008      C1029   1.269       .  A
O1009     Ni1032   1.910       .  S
O1009      C1018   1.266       .  A
O1010     Ni1014   1.907       .  S
O1010     Ni1032   1.949       .  S
O1010     Ni1026   1.911       .  S
O1010      H1033   0.967       .  S
C1011      C3527   1.442       .  S
C1011      O1028   1.279       .  A
C1011      O1020   1.278       .  A
O1012     Ni1031   1.888       .  S
O1012      C1018   1.264       .  A
O1013     Ni1031   1.891       .  S
O1013      C1015   1.262       .  A
Ni1014     O1017   1.904       .  S
Ni1014     O1019   1.894       .  S
C1015      C1717   1.466       .  S
C1015      O1025   1.267       .  A
O1016     Ni1032   1.909       .  S
O1016      C1022   1.263       .  A
O1017      C1022   1.257       .  A
C1018      C1434   1.451       .  S
O1019      C1021   1.263       .  A
O1020     Ni1031   1.891       .  S
C1021      C1444   1.462       .  S
C1021      O1027   1.281       .  A
C1022      C1497   1.452       .  S
H1023      O1024   0.964       .  S
O1024     Ni1032   1.893       .  S
O1024     Ni1026   1.882       .  S
O1024     Ni1031   1.880       .  S
O1025     Ni1026   1.924       .  S
Ni1026     O1030   1.905       .  S
Ni1026     O1028   1.906       .  S
O1027     Ni1032   1.954       .  S
C1029      C3017   1.455       .  S
C1029      O1030   1.268       .  A
O1034     Ni1040   1.930       .  S
O1034      C1055   1.274       .  A
O1035     Ni1058   1.897       .  S
O1035      C1044   1.272       .  A
O1036     Ni1040   1.896       .  S
O1036     Ni1058   1.903       .  S
O1036     Ni1052   1.889       .  S
O1036      H1059   0.969       .  S
C1037      C2377   1.457       .  S
C1037      O1054   1.273       .  A
C1037      O1046   1.277       .  A
O1038     Ni1057   1.908       .  S
O1038      C1044   1.270       .  A
O1039     Ni1057   1.925       .  S
O1039      C1041   1.269       .  A
Ni1040     O1043   1.921       .  S
Ni1040     O1045   1.894       .  S
C1041      C2887   1.490       .  S
C1041      O1051   1.266       .  A
O1042     Ni1058   1.880       .  S
O1042      C1048   1.265       .  A
O1043      C1048   1.269       .  A
C1044      C3337   1.455       .  S
O1045      C1047   1.268       .  A
O1046     Ni1057   1.904       .  S
C1047      C1517   1.499       .  S
C1047      O1053   1.289       .  A
C1048      C1414   1.457       .  S
H1049      O1050   0.966       .  S
O1050     Ni1058   1.877       .  S
O1050     Ni1052   1.875       .  S
O1050     Ni1057   1.887       .  S
O1051     Ni1052   1.927       .  S
Ni1052     O1056   1.848       .  S
Ni1052     O1054   1.904       .  S
O1053     Ni1058   1.985       .  S
C1055      C1424   1.457       .  S
C1055      O1056   1.257       .  A
N1060      C1064   1.345       .  A
N1060      C1061   1.360       .  A
N1060      C3407   1.453       .  S
C1061      C1062   1.409       .  A
C1061      C1447   1.454       .  S
C1062      C1063   1.424       .  A
C1062      C2947   1.548       .  S
C1063      C1064   1.411       .  A
C1063      C2427   1.471       .  S
C1064      C1404   1.513       .  S
N1065      C1069   1.353       .  A
N1065      C1066   1.352       .  A
N1065      C1567   1.457       .  S
C1066      C1067   1.414       .  A
C1066      C1394   1.494       .  S
C1067      C1068   1.428       .  A
C1067      C2207   1.496       .  S
C1068      C1069   1.393       .  A
C1068      C3427   1.533       .  S
C1069      C1384   1.451       .  S
N1070      C1074   1.355       .  A
N1070      C1071   1.341       .  A
N1070      C2417   1.447       .  S
C1071      C1072   1.387       .  A
C1071      C1374   1.471       .  S
C1072      C1073   1.381       .  A
C1072      C1577   1.446       .  S
C1073      C1074   1.388       .  A
C1073      C3097   1.497       .  S
C1074      C1467   1.449       .  S
O1075     Ni1081   1.891       .  S
O1075      C1096   1.260       .  A
O1076     Ni1099   1.874       .  S
O1076      C1085   1.264       .  A
O1077     Ni1081   1.884       .  S
O1077     Ni1099   1.871       .  S
O1077     Ni1093   1.946       .  S
O1077      H1100   0.968       .  S
C1078      C1377   1.463       .  S
C1078      O1095   1.290       .  A
C1078      O1087   1.281       .  A
O1079     Ni1098   1.912       .  S
O1079      C1085   1.270       .  A
O1080     Ni1098   1.908       .  S
O1080      C1082   1.265       .  A
Ni1081     O1084   1.932       .  S
Ni1081     O1086   1.900       .  S
C1082      C1407   1.508       .  S
C1082      O1092   1.280       .  A
O1083     Ni1099   1.919       .  S
O1083      C1089   1.277       .  A
O1084      C1089   1.283       .  A
C1085      C2637   1.430       .  S
O1086      C1088   1.263       .  A
O1087     Ni1098   1.904       .  S
C1088      C1597   1.500       .  S
C1088      O1094   1.279       .  A
C1089      C3477   1.488       .  S
H1090      O1091   0.969       .  S
O1091     Ni1099   1.896       .  S
O1091     Ni1093   1.873       .  S
O1091     Ni1098   1.867       .  S
O1092     Ni1093   1.964       .  S
Ni1093     O1097   1.923       .  S
Ni1093     O1095   1.937       .  S
O1094     Ni1099   1.970       .  S
C1096      C1387   1.461       .  S
C1096      O1097   1.269       .  A
N1101      C1105   1.345       .  A
N1101      C1102   1.352       .  A
N1101      C3087   1.449       .  S
C1102      C1103   1.381       .  A
C1102      C1364   1.431       .  S
C1103      C1104   1.386       .  A
C1103      C2107   1.504       .  S
C1104      C1105   1.398       .  A
C1104      C3584   1.452       .  S
C1105      C1457   1.479       .  S
N1106      C1110   1.350       .  A
N1106      C1107   1.365       .  A
N1106      C2507   1.497       .  S
C1107      C1108   1.442       .  A
C1107      C1354   1.448       .  S
C1108      C1109   1.468       .  A
C1108      C1584   1.614       .  S
C1109      C1110   1.435       .  A
C1109      C3107   1.537       .  S
C1110      C1344   1.488       .  S
N1111      C1115   1.334       .  A
N1111      C1112   1.339       .  A
N1111      C2097   1.432       .  S
C1112      C1113   1.385       .  A
C1112      C1427   1.447       .  S
C1113      C1114   1.389       .  A
C1113      C2777   1.484       .  S
C1114      C1115   1.384       .  A
C1114      C2517   1.448       .  S
C1115      C1334   1.461       .  S
O1116     Ni1122   1.880       .  S
O1116      C1137   1.252       .  A
O1117     Ni1140   1.883       .  S
O1117      C1126   1.265       .  A
O1118     Ni1122   1.869       .  S
O1118     Ni1140   1.866       .  S
O1118     Ni1134   1.910       .  S
O1118      H1141   0.965       .  S
C1119      C1367   1.439       .  S
C1119      O1136   1.276       .  A
C1119      O1128   1.280       .  A
O1120     Ni1139   1.911       .  S
O1120      C1126   1.267       .  A
O1121     Ni1139   1.884       .  S
O1121      C1123   1.263       .  A
Ni1122     O1125   1.899       .  S
Ni1122     O1127   1.891       .  S
C1123      C1347   1.486       .  S
C1123      O1133   1.285       .  A
O1124     Ni1140   1.897       .  S
O1124      C1130   1.280       .  A
O1125      C1130   1.282       .  A
C1126      C3157   1.450       .  S
O1127      C1129   1.258       .  A
O1128     Ni1139   1.900       .  S
C1129      C2314   1.505       .  S
C1129      O1135   1.274       .  A
C1130      C2537   1.458       .  S
H1131      O1132   0.965       .  S
O1132     Ni1140   1.896       .  S
O1132     Ni1134   1.894       .  S
O1132     Ni1139   1.867       .  S
O1133     Ni1134   1.970       .  S
Ni1134     O1138   1.945       .  S
Ni1134     O1136   1.890       .  S
O1135     Ni1140   1.963       .  S
C1137      C1337   1.478       .  S
C1137      O1138   1.275       .  A
N1142      C1146   1.367       .  A
N1142      C1143   1.351       .  A
N1142      C2767   1.469       .  S
C1143      C1144   1.426       .  A
C1143      C1327   1.518       .  S
C1144      C1145   1.431       .  A
C1144      C1547   1.476       .  S
C1145      C1146   1.408       .  A
C1145      C3267   1.581       .  S
C1146      C1417   1.442       .  S
N1147      C1151   1.353       .  A
N1147      C1148   1.344       .  A
N1147      C2187   1.455       .  S
C1148      C1149   1.434       .  A
C1148      C1304   1.519       .  S
C1149      C1150   1.500       .  A
C1149      C2787   1.561       .  S
C1150      C1151   1.411       .  A
C1150      C2527   1.591       .  S
C1151      C1314   1.473       .  S
N1152      C1156   1.342       .  A
N1152      C1153   1.342       .  A
N1152      C1537   1.447       .  S
C1153      C1154   1.392       .  A
C1153      C1437   1.456       .  S
C1154      C1155   1.396       .  A
C1154      C3417   1.479       .  S
C1155      C1156   1.388       .  A
C1155      C2197   1.492       .  S
C1156      C1294   1.437       .  S
O1157     Ni1163   1.929       .  S
O1157      C1178   1.275       .  A
O1158     Ni1181   1.877       .  S
O1158      C1167   1.265       .  A
O1159     Ni1163   1.906       .  S
O1159     Ni1181   1.882       .  S
O1159     Ni1175   1.944       .  S
O1159      H1182   0.966       .  S
C1160      C1677   1.503       .  S
C1160      O1177   1.297       .  A
C1160      O1169   1.279       .  A
O1161     Ni1180   1.896       .  S
O1161      C1167   1.262       .  A
O1162     Ni1180   1.915       .  S
O1162      C1164   1.264       .  A
Ni1163     O1166   1.970       .  S
Ni1163     O1168   1.923       .  S
C1164      C2217   1.522       .  S
C1164      O1174   1.286       .  A
O1165     Ni1181   1.914       .  S
O1165      C1171   1.274       .  A
O1166      C1171   1.285       .  A
C1167      C1297   1.445       .  S
O1168      C1170   1.270       .  A
O1169     Ni1180   1.903       .  S
C1170      C1324   1.524       .  S
C1170      O1176   1.284       .  A
C1171      C1307   1.496       .  S
H1172      O1173   0.966       .  S
O1173     Ni1181   1.924       .  S
O1173     Ni1175   1.865       .  S
O1173     Ni1180   1.881       .  S
O1174     Ni1175   1.996       .  S
Ni1175     O1179   1.894       .  S
Ni1175     O1177   1.975       .  S
O1176     Ni1181   1.985       .  S
C1178      C2837   1.464       .  S
C1178      O1179   1.270       .  A
O1183     Ni1189   1.900       .  S
O1183      C1204   1.266       .  A
O1184     Ni1207   1.905       .  S
O1184      C1193   1.265       .  A
O1185     Ni1189   1.892       .  S
O1185     Ni1207   1.892       .  S
O1185     Ni1201   1.906       .  S
O1185      H1208   0.964       .  S
C1186      C2267   1.453       .  S
C1186      O1203   1.277       .  A
C1186      O1195   1.276       .  A
O1187     Ni1206   1.899       .  S
O1187      C1193   1.261       .  A
O1188     Ni1206   1.896       .  S
O1188      C1190   1.264       .  A
Ni1189     O1192   1.905       .  S
Ni1189     O1194   1.907       .  S
C1190      C2587   1.478       .  S
C1190      O1200   1.275       .  A
O1191     Ni1207   1.902       .  S
O1191      C1197   1.277       .  A
O1192      C1197   1.279       .  A
C1193      C1637   1.460       .  S
O1194      C1196   1.266       .  A
O1195     Ni1206   1.898       .  S
C1196      C1397   1.502       .  S
C1196      O1202   1.273       .  A
C1197      C1357   1.460       .  S
H1198      O1199   0.967       .  S
O1199     Ni1207   1.911       .  S
O1199     Ni1201   1.897       .  S
O1199     Ni1206   1.894       .  S
O1200     Ni1201   1.943       .  S
Ni1201     O1205   1.919       .  S
Ni1201     O1203   1.900       .  S
O1202     Ni1207   1.945       .  S
C1204      C1317   1.477       .  S
C1204      O1205   1.269       .  A
O1209     Ni1217   1.882   1_455  S
O1209      C1219   1.275       .  A
O1210     Ni1217   1.877       .  S
O1210      C1220   1.273       .  A
O1211     Ni1217   1.917       .  S
O1211      C1221   1.282       .  A
O1212     Ni1217   1.921   1_455  S
O1212      C1222   1.282       .  A
O1213     Ni1218   1.894       .  S
O1213      C1222   1.276       .  A
O1214     Ni1218   1.895   1_655  S
O1214      C1221   1.274       .  A
O1215     Ni1218   1.917   1_655  S
O1215      C1220   1.280       .  A
O1216     Ni1218   1.908       .  S
O1216      C1219   1.282       .  A
Ni1217    Ni1218   2.397   1_655  S
C1219      C3367   1.461       .  S
C1220      C3234   1.441       .  S
C1221      C3187   1.452       .  S
C1222      C3317   1.458       .  S
O1223     Ni1231   1.883   1_655  S
O1223      C1233   1.275       .  A
O1224     Ni1231   1.877       .  S
O1224      C1234   1.275       .  A
O1225     Ni1231   1.895   1_655  S
O1225      C1235   1.277       .  A
O1226     Ni1231   1.897       .  S
O1226      C1236   1.277       .  A
O1227     Ni1232   1.907       .  S
O1227      C1236   1.281       .  A
O1228     Ni1232   1.907   1_655  S
O1228      C1235   1.278       .  A
O1229     Ni1232   1.896       .  S
O1229      C1234   1.275       .  A
O1230     Ni1232   1.889   1_655  S
O1230      C1233   1.278       .  A
Ni1231    Ni1232   2.398       .  S
C1233      C1667   1.448       .  S
C1234      C1747   1.428       .  S
C1235      C1627   1.444       .  S
C1236      C1704   1.469       .  S
O1237     Ni1245   1.889       .  S
O1237      C1247   1.278       .  A
O1238     Ni1245   1.902   1_556  S
O1238      C1248   1.276       .  A
O1239     Ni1245   1.904   1_556  S
O1239      C1249   1.277       .  A
O1240     Ni1245   1.899       .  S
O1240      C1250   1.279       .  A
O1241     Ni1246   1.922   1_554  S
O1241      C1250   1.283       .  A
O1242     Ni1246   1.915       .  S
O1242      C1249   1.281       .  A
O1243     Ni1246   1.863       .  S
O1243      C1248   1.273       .  A
O1244     Ni1246   1.863   1_554  S
O1244      C1247   1.269       .  A
Ni1245    Ni1246   2.400   1_554  S
C1247      C2677   1.417       .  S
C1248      C2577   1.425       .  S
C1249      C2627   1.454       .  S
C1250      C2727   1.479       .  S
O1251     Ni1259   1.893       .  S
O1251      C1261   1.276       .  A
O1252     Ni1259   1.890   1_545  S
O1252      C1262   1.276       .  A
O1253     Ni1259   1.872   1_545  S
O1253      C1263   1.275       .  A
O1254     Ni1259   1.875       .  S
O1254      C1264   1.275       .  A
O1255     Ni1260   1.878       .  S
O1255      C1264   1.274       .  A
O1256     Ni1260   1.879   1_545  S
O1256      C1263   1.273       .  A
O1257     Ni1260   1.944   1_545  S
O1257      C1262   1.287       .  A
O1258     Ni1260   1.942       .  S
O1258      C1261   1.288       .  A
Ni1259    Ni1260   2.390       .  S
C1261      C2257   1.486       .  S
C1262      C2354   1.489       .  S
C1263      C2407   1.438       .  S
C1264      C2307   1.436       .  S
O1265     Ni1273   1.896   1_556  S
O1265      C1275   1.277       .  A
O1266     Ni1273   1.894       .  S
O1266      C1276   1.276       .  A
O1267     Ni1273   1.922   1_556  S
O1267      C1277   1.283       .  A
O1268     Ni1273   1.925       .  S
O1268      C1278   1.284       .  A
O1269     Ni1274   1.921       .  S
O1269      C1278   1.282       .  A
O1270     Ni1274   1.922   1_556  S
O1270      C1277   1.282       .  A
O1271     Ni1274   1.908       .  S
O1271      C1276   1.280       .  A
O1272     Ni1274   1.903   1_556  S
O1272      C1275   1.279       .  A
Ni1273    Ni1274   2.390       .  S
C1275      C2867   1.458       .  S
C1276      C2994   1.456       .  S
C1277      C2917   1.479       .  S
C1278      C3047   1.491       .  S
O1279     Ni1287   1.873   1_545  S
O1279      C1289   1.273       .  A
O1280     Ni1287   1.876       .  S
O1280      C1290   1.274       .  A
O1281     Ni1287   1.917       .  S
O1281      C1291   1.280       .  A
O1282     Ni1287   1.912   1_545  S
O1282      C1292   1.281       .  A
O1283     Ni1288   1.904   1_545  S
O1283      C1292   1.280       .  A
O1284     Ni1288   1.906       .  S
O1284      C1291   1.279       .  A
O1285     Ni1288   1.905       .  S
O1285      C1290   1.280       .  A
O1286     Ni1288   1.905   1_545  S
O1286      C1289   1.278       .  A
Ni1287    Ni1288   2.395       .  S
C1289      C3687   1.431       .  S
C1290      C3557   1.458       .  S
C1291      C3507   1.459       .  S
C1292      C3637   1.474       .  S
C1293      C1294   1.391       .  A
C1293      C1298   1.383       .  A
C1293      H1300   1.083       .  S
C1294      C1295   1.397       .  A
C1295      C1296   1.378       .  A
C1295      F1302   1.358       .  S
C1296      C1297   1.399       .  A
C1296      H1301   1.084       .  S
C1297      C1298   1.410       .  A
C1298      F1299   1.358       .  S
C1303      C1304   1.410       .  A
C1303      C1308   1.402       .  A
C1303      H1310   1.081       .  S
C1304      C1305   1.414       .  A
C1305      C1306   1.414       .  A
C1305      F1312   1.357       .  S
C1306      C1307   1.408       .  A
C1306      H1311   1.083       .  S
C1307      C1308   1.407       .  A
C1308      F1309   1.358       .  S
C1313      C1314   1.403       .  A
C1313      C1318   1.401       .  A
C1313      H1320   1.083       .  S
C1314      C1315   1.399       .  A
C1315      C1316   1.390       .  A
C1315      F1322   1.358       .  S
C1316      C1317   1.407       .  A
C1316      H1321   1.083       .  S
C1317      C1318   1.407       .  A
C1318      F1319   1.357       .  S
C1323      C1324   1.415       .  A
C1323      C1328   1.414       .  A
C1323      H1330   1.083       .  S
C1324      C1325   1.414       .  A
C1325      C1326   1.420       .  A
C1325      F1332   1.356       .  S
C1326      C1327   1.411       .  A
C1326      H1331   1.083       .  S
C1327      C1328   1.410       .  A
C1328      F1329   1.357       .  S
C1333      C1334   1.384       .  A
C1333      C1338   1.382       .  A
C1333      H1340   1.084       .  S
C1334      C1335   1.409       .  A
C1335      C1336   1.402       .  A
C1335      F1342   1.357       .  S
C1336      C1337   1.401       .  A
C1336      H1341   1.083       .  S
C1337      C1338   1.423       .  A
C1338      F1339   1.358       .  S
C1343      C1344   1.409       .  A
C1343      C1348   1.408       .  A
C1343      H1350   1.083       .  S
C1344      C1345   1.401       .  A
C1345      C1346   1.402       .  A
C1345      F1352   1.357       .  S
C1346      C1347   1.410       .  A
C1346      H1351   1.084       .  S
C1347      C1348   1.406       .  A
C1348      F1349   1.357       .  S
C1353      C1354   1.397       .  A
C1353      C1358   1.393       .  A
C1353      H1360   1.083       .  S
C1354      C1355   1.399       .  A
C1355      C1356   1.383       .  A
C1355      F1362   1.357       .  S
C1356      C1357   1.403       .  A
C1356      H1361   1.084       .  S
C1357      C1358   1.410       .  A
C1358      F1359   1.358       .  S
C1363      C1364   1.391       .  A
C1363      C1368   1.379       .  A
C1363      H1370   1.084       .  S
C1364      C1365   1.398       .  A
C1365      C1366   1.383       .  A
C1365      F1372   1.356       .  S
C1366      C1367   1.399       .  A
C1366      H1371   1.084       .  S
C1367      C1368   1.404       .  A
C1368      F1369   1.358       .  S
C1373      C1374   1.407       .  A
C1373      C1378   1.393       .  A
C1373      H1380   1.082       .  S
C1374      C1375   1.395       .  A
C1375      C1376   1.392       .  A
C1375      F1382   1.357       .  S
C1376      C1377   1.408       .  A
C1376      H1381   1.084       .  S
C1377      C1378   1.398       .  A
C1378      F1379   1.357       .  S
C1383      C1384   1.387       .  A
C1383      C1388   1.378       .  A
C1383      H1390   1.084       .  S
C1384      C1385   1.404       .  A
C1385      C1386   1.398       .  A
C1385      F1392   1.357       .  S
C1386      C1387   1.401       .  A
C1386      H1391   1.083       .  S
C1387      C1388   1.412       .  A
C1388      F1389   1.356       .  S
C1393      C1394   1.402       .  A
C1393      C1398   1.401       .  A
C1393      H1400   1.083       .  S
C1394      C1395   1.407       .  A
C1395      C1396   1.407       .  A
C1395      F1402   1.356       .  S
C1396      C1397   1.411       .  A
C1396      H1401   1.083       .  S
C1397      C1398   1.415       .  A
C1398      F1399   1.357       .  S
C1403      C1404   1.410       .  A
C1403      C1408   1.409       .  A
C1403      H1410   1.080       .  S
C1404      C1405   1.408       .  A
C1405      C1406   1.411       .  A
C1405      F1412   1.357       .  S
C1406      C1407   1.415       .  A
C1406      H1411   1.083       .  S
C1407      C1408   1.408       .  A
C1408      F1409   1.357       .  S
C1413      C1414   1.405       .  A
C1413      C1418   1.386       .  A
C1413      H1420   1.083       .  S
C1414      C1415   1.407       .  A
C1415      C1416   1.385       .  A
C1415      F1422   1.358       .  S
C1416      C1417   1.396       .  A
C1416      H1421   1.084       .  S
C1417      C1418   1.396       .  A
C1418      F1419   1.358       .  S
C1423      C1424   1.410       .  A
C1423      C1428   1.381       .  A
C1423      H1430   1.083       .  S
C1424      C1425   1.403       .  A
C1425      C1426   1.385       .  A
C1425      F1432   1.358       .  S
C1426      C1427   1.399       .  A
C1426      H1431   1.081       .  S
C1427      C1428   1.391       .  A
C1428      F1429   1.358       .  S
C1433      C1434   1.398       .  A
C1433      C1438   1.395       .  A
C1433      H1440   1.083       .  S
C1434      C1435   1.406       .  A
C1435      C1436   1.383       .  A
C1435      F1442   1.357       .  S
C1436      C1437   1.391       .  A
C1436      H1441   1.084       .  S
C1437      C1438   1.405       .  A
C1438      F1439   1.357       .  S
C1443      C1444   1.403       .  A
C1443      C1448   1.388       .  A
C1443      H1450   1.083       .  S
C1444      C1445   1.407       .  A
C1445      C1446   1.396       .  A
C1445      F1452   1.358       .  S
C1446      C1447   1.399       .  A
C1446      H1451   1.083       .  S
C1447      C1448   1.399       .  A
C1448      F1449   1.358       .  S
C1453      C1454   1.405       .  A
C1453      C1458   1.394       .  A
C1453      H1460   1.083       .  S
C1454      C1455   1.412       .  A
C1455      C1456   1.406       .  A
C1455      F1462   1.358       .  S
C1456      C1457   1.403       .  A
C1456      H1461   1.083       .  S
C1457      C1458   1.402       .  A
C1458      F1459   1.357       .  S
C1463      C1464   1.396       .  A
C1463      C1468   1.388       .  A
C1463      H1470   1.084       .  S
C1464      C1465   1.400       .  A
C1465      C1466   1.385       .  A
C1465      F1472   1.357       .  S
C1466      C1467   1.400       .  A
C1466      H1471   1.083       .  S
C1467      C1468   1.405       .  A
C1468      F1469   1.356       .  S
C1473      C1474   1.396       .  A
C1473      C1478   1.393       .  A
C1473      H1480   1.084       .  S
C1474      C1475   1.402       .  A
C1475      C1476   1.389       .  A
C1475      F1482   1.358       .  S
C1476      C1477   1.400       .  A
C1476      H1481   1.083       .  S
C1477      C1478   1.409       .  A
C1478      F1479   1.358       .  S
C1483      C1484   1.392       .  A
C1483      C1488   1.392       .  A
C1483      H1490   1.084       .  S
C1484      C1485   1.405       .  A
C1485      C1486   1.393       .  A
C1485      F1492   1.357       .  S
C1486      C1487   1.400       .  A
C1486      H1491   1.083       .  S
C1487      C1488   1.417       .  A
C1488      F1489   1.357       .  S
C1493      C1494   1.393       .  A
C1493      C1498   1.383       .  A
C1493      H1500   1.084       .  S
C1494      C1495   1.407       .  A
C1495      C1496   1.381       .  A
C1495      F1502   1.350       .  S
C1496      C1497   1.393       .  A
C1496      H1501   1.084       .  S
C1497      C1498   1.411       .  A
C1498      F1499   1.353       .  S
C1503      C1504   1.408       .  A
C1503      C1508   1.387       .  A
C1503      H1510   1.080       .  S
C1504      C1505   1.394       .  A
C1505      C1506   1.387       .  A
C1505      F1512   1.357       .  S
C1506      C1507   1.405       .  A
C1506      H1511   1.084       .  S
C1507      C1508   1.392       .  A
C1508      F1509   1.358       .  S
C1513      C1514   1.397       .  A
C1513      C1518   1.400       .  A
C1513      H1520   1.083       .  S
C1514      C1515   1.411       .  A
C1515      C1516   1.406       .  A
C1515      F1522   1.357       .  S
C1516      C1517   1.406       .  A
C1516      H1521   1.083       .  S
C1517      C1518   1.420       .  A
C1518      F1519   1.358       .  S
C1523      C1524   1.403       .  A
C1523      C1528   1.397       .  A
C1523      H1530   1.083       .  S
C1524      C1525   1.401       .  A
C1525      C1526   1.388       .  A
C1525      F1532   1.357       .  S
C1526      C1527   1.401       .  A
C1526      H1531   1.084       .  S
C1527      C1528   1.401       .  A
C1528      F1529   1.357       .  S
C1533      C1534   1.405       .  A
C1533      C1538   1.401       .  A
C1533      H1540   1.083       .  S
C1534      C1535   1.409       .  A
C1535      C1536   1.403       .  A
C1535      F1542   1.357       .  S
C1536      C1537   1.404       .  A
C1536      H1541   1.080       .  S
C1537      C1538   1.405       .  A
C1538      F1539   1.356       .  S
C1543      C1544   1.411       .  A
C1543      C1548   1.404       .  A
C1543      H1550   1.078       .  S
C1544      C1545   1.416       .  A
C1545      C1546   1.399       .  A
C1545      F1552   1.357       .  S
C1546      C1547   1.397       .  A
C1546      H1551   1.083       .  S
C1547      C1548   1.404       .  A
C1548      F1549   1.357       .  S
C1553      C1554   1.405       .  A
C1553      C1558   1.393       .  A
C1553      H1560   1.081       .  S
C1554      C1555   1.415       .  A
C1555      C1556   1.396       .  A
C1555      F1562   1.356       .  S
C1556      C1557   1.395       .  A
C1556      H1561   1.083       .  S
C1557      C1558   1.408       .  A
C1558      F1559   1.356       .  S
C1563      C1564   1.415       .  A
C1563      C1568   1.414       .  A
C1563      H1570   1.082       .  S
C1564      C1565   1.418       .  A
C1565      C1566   1.407       .  A
C1565      F1572   1.356       .  S
C1566      C1567   1.403       .  A
C1566      H1571   1.083       .  S
C1567      C1568   1.406       .  A
C1568      F1569   1.356       .  S
C1573      C1574   1.394       .  A
C1573      C1578   1.373       .  A
C1573      H1580   1.084       .  S
C1574      C1575   1.397       .  A
C1575      C1576   1.392       .  A
C1575      F1582   1.357       .  S
C1576      C1577   1.402       .  A
C1576      H1581   1.083       .  S
C1577      C1578   1.401       .  A
C1578      F1579   1.355       .  S
C1583      C1584   1.433       .  A
C1583      C1588   1.431       .  A
C1583      H1590   1.066       .  S
C1584      C1585   1.428       .  A
C1585      C1586   1.458       .  A
C1585      F1592   1.356       .  S
C1586      C1587   1.442       .  A
C1586      H1591   1.081       .  S
C1587      C1588   1.415       .  A
C1588      F1589   1.353       .  S
C1593      C1594   1.410       .  A
C1593      C1598   1.415       .  A
C1593      H1600   1.082       .  S
C1594      C1595   1.405       .  A
C1595      C1596   1.402       .  A
C1595      F1602   1.357       .  S
C1596      C1597   1.409       .  A
C1596      H1601   1.083       .  S
C1597      C1598   1.411       .  A
C1598      F1599   1.357       .  S
C1603      C1604   1.416       .  A
C1603      C1608   1.438       .  A
C1603      H1610   1.083       .  S
C1604      C1605   1.421       .  A
C1605      C1606   1.437       .  A
C1605      F1612   1.357       .  S
C1606      C1607   1.426       .  A
C1606      H1611   1.075       .  S
C1607      C1608   1.433       .  A
C1608      F1609   1.355       .  S
C1613      C1614   1.422       .  A
C1613      C1618   1.447       .  A
C1613      H1620   1.082       .  S
C1614      C1615   1.427       .  A
C1615      C1616   1.439       .  A
C1615      F1622   1.356       .  S
C1616      C1617   1.422       .  A
C1616      H1621   1.070       .  S
C1617      C1618   1.434       .  A
C1618      F1619   1.356       .  S
C1623      C1624   1.403       .  A
C1623      C1628   1.392       .  A
C1623      H1630   1.083       .  S
C1624      C1625   1.404       .  A
C1625      C1626   1.388       .  A
C1625      F1632   1.357       .  S
C1626      C1627   1.398       .  A
C1626      H1631   1.084       .  S
C1627      C1628   1.398       .  A
C1628      F1629   1.357       .  S
C1633      C1634   1.399       .  A
C1633      C1638   1.391       .  A
C1633      H1640   1.083       .  S
C1634      C1635   1.402       .  A
C1635      C1636   1.391       .  A
C1635      F1642   1.356       .  S
C1636      C1637   1.403       .  A
C1636      H1641   1.084       .  S
C1637      C1638   1.404       .  A
C1638      F1639   1.358       .  S
C1643      C1644   1.393       .  A
C1643      C1648   1.387       .  A
C1643      H1650   1.084       .  S
C1644      C1645   1.408       .  A
C1645      C1646   1.396       .  A
C1645      F1652   1.357       .  S
C1646      C1647   1.398       .  A
C1646      H1651   1.083       .  S
C1647      C1648   1.408       .  A
C1648      F1649   1.358       .  S
C1653      C1654   1.408       .  A
C1653      C1658   1.398       .  A
C1653      H1660   1.083       .  S
C1654      C1655   1.410       .  A
C1655      C1656   1.397       .  A
C1655      F1662   1.356       .  S
C1656      C1657   1.404       .  A
C1656      H1661   1.082       .  S
C1657      C1658   1.400       .  A
C1658      F1659   1.357       .  S
C1663      C1664   1.394       .  A
C1663      C1668   1.384       .  A
C1663      H1670   1.084       .  S
C1664      C1665   1.398       .  A
C1665      C1666   1.380       .  A
C1665      F1672   1.354       .  S
C1666      C1667   1.400       .  A
C1666      H1671   1.083       .  S
C1667      C1668   1.407       .  A
C1668      F1669   1.358       .  S
C1673      C1674   1.396       .  A
C1673      C1678   1.398       .  A
C1673      H1680   1.083       .  S
C1674      C1675   1.408       .  A
C1675      C1676   1.409       .  A
C1675      F1682   1.356       .  S
C1676      C1677   1.409       .  A
C1676      H1681   1.083       .  S
C1677      C1678   1.420       .  A
C1678      F1679   1.358       .  S
C1683      C1684   1.402       .  A
C1683      C1688   1.401       .  A
C1683      H1690   1.083       .  S
C1684      C1685   1.398       .  A
C1685      C1686   1.394       .  A
C1685      F1692   1.358       .  S
C1686      C1687   1.411       .  A
C1686      H1691   1.081       .  S
C1687      C1688   1.408       .  A
C1688      F1689   1.356       .  S
C1693      C1694   1.416       .  A
C1693      C1698   1.405       .  A
C1693      H1700   1.081       .  S
C1694      C1695   1.415       .  A
C1695      C1696   1.411       .  A
C1695      F1702   1.354       .  S
C1696      C1697   1.405       .  A
C1696      H1701   1.083       .  S
C1697      C1698   1.403       .  A
C1698      F1699   1.357       .  S
C1703      C1704   1.404       .  A
C1703      C1708   1.389       .  A
C1703      H1710   1.083       .  S
C1704      C1705   1.411       .  A
C1705      C1706   1.392       .  A
C1705      F1712   1.358       .  S
C1706      C1707   1.397       .  A
C1706      H1711   1.084       .  S
C1707      C1708   1.400       .  A
C1708      F1709   1.357       .  S
C1713      C1714   1.394       .  A
C1713      C1718   1.390       .  A
C1713      H1720   1.083       .  S
C1714      C1715   1.408       .  A
C1715      C1716   1.399       .  A
C1715      F1722   1.357       .  S
C1716      C1717   1.401       .  A
C1716      H1721   1.083       .  S
C1717      C1718   1.409       .  A
C1718      F1719   1.358       .  S
C1723      C1724   1.396       .  A
C1723      C1728   1.397       .  A
C1723      H1730   1.083       .  S
C1724      C1725   1.407       .  A
C1725      C1726   1.400       .  A
C1725      F1732   1.357       .  S
C1726      C1727   1.404       .  A
C1726      H1731   1.071       .  S
C1727      C1728   1.419       .  A
C1728      F1729   1.358       .  S
C1733      C1734   1.411       .  A
C1733      C1738   1.413       .  A
C1733      H1740   1.083       .  S
C1734      C1735   1.414       .  A
C1735      C1736   1.411       .  A
C1735      F1742   1.356       .  S
C1736      C1737   1.405       .  A
C1736      H1741   1.083       .  S
C1737      C1738   1.408       .  A
C1738      F1739   1.357       .  S
C1743      C1744   1.395       .  A
C1743      C1748   1.381       .  A
C1743      H1750   1.084       .  S
C1744      C1745   1.400       .  A
C1745      C1746   1.387       .  A
C1745      F1752   1.358       .  S
C1746      C1747   1.396       .  A
C1746      H1751   1.084       .  S
C1747      C1748   1.399       .  A
C1748      F1749   1.359       .  S
C1753      C1754   1.408       .  A
C1753      C1758   1.400       .  A
C1753      H1760   1.083       .  S
C1754      C1755   1.414       .  A
C1755      C1756   1.390       .  A
C1755      F1762   1.358       .  S
C1756      C1757   1.395       .  A
C1756      H1761   1.084       .  S
C1757      C1758   1.404       .  A
C1758      F1759   1.357       .  S
C1763      C1764   1.402       .  A
C1763      C1768   1.390       .  A
C1763      H1770   1.081       .  S
C1764      C1765   1.406       .  A
C1765      C1766   1.407       .  A
C1765      F1772   1.357       .  S
C1766      C1767   1.404       .  A
C1766      H1771   1.083       .  S
C1767      C1768   1.404       .  A
C1768      F1769   1.358       .  S
C1773      C1774   1.396       .  A
C1773      C1778   1.381       .  A
C1773      H1780   1.081       .  S
C1774      C1775   1.402       .  A
C1775      C1776   1.396       .  A
C1775      F1782   1.357       .  S
C1776      C1777   1.406       .  A
C1776      H1781   1.083       .  S
C1777      C1778   1.408       .  A
C1778      F1779   1.358       .  S
C1783      C1784   1.417       .  A
C1783      C1788   1.438       .  A
C1783      H1790   1.083       .  S
C1784      C1785   1.426       .  A
C1785      C1786   1.441       .  A
C1785      F1792   1.357       .  S
C1786      C1787   1.423       .  A
C1786      H1791   1.080       .  S
C1787      C1788   1.433       .  A
C1788      F1789   1.356   1_455  S
C1793      C1794   1.399       .  A
C1793      C1798   1.396       .  A
C1793      H1800   1.083       .  S
C1794      C1795   1.402       .  A
C1795      C1796   1.399       .  A
C1795      F1802   1.357       .  S
C1796      C1797   1.406       .  A
C1796      H1801   1.083       .  S
C1797      C1798   1.411       .  A
C1798      F1799   1.358       .  S
C1803      C1804   1.405       .  A
C1803      C1808   1.409       .  A
C1803      H1810   1.082       .  S
C1804      C1805   1.412       .  A
C1805      C1806   1.410       .  A
C1805      F1812   1.355       .  S
C1806      C1807   1.405       .  A
C1806      H1811   1.083       .  S
C1807      C1808   1.412       .  A
C1808      F1809   1.357       .  S
C1813      C1814   1.414       .  A
C1813      C1818   1.401       .  A
C1813      H1820   1.083       .  S
C1814      C1815   1.408       .  A
C1815      C1816   1.415       .  A
C1815      F1822   1.357       .  S
C1816      C1817   1.414       .  A
C1816      H1821   1.083       .  S
C1817      C1818   1.399       .  A
C1818      F1819   1.356       .  S
C1823      C1824   1.409       .  A
C1823      C1828   1.405       .  A
C1823      H1830   1.083       .  S
C1824      C1825   1.405       .  A
C1825      C1826   1.402       .  A
C1825      F1832   1.356       .  S
C1826      C1827   1.410       .  A
C1826      H1831   1.083       .  S
C1827      C1828   1.407       .  A
C1828      F1829   1.357       .  S
C1833      C1834   1.398       .  A
C1833      C1838   1.392       .  A
C1833      H1840   1.083       .  S
C1834      C1835   1.402       .  A
C1835      C1836   1.383       .  A
C1835      F1842   1.359       .  S
C1836      C1837   1.397       .  A
C1836      H1841   1.083       .  S
C1837      C1838   1.404       .  A
C1838      F1839   1.357       .  S
C1843      C1844   1.402       .  A
C1843      C1848   1.395       .  A
C1843      H1850   1.083       .  S
C1844      C1845   1.417       .  A
C1845      C1846   1.386       .  A
C1845      F1852   1.358       .  S
C1846      C1847   1.390       .  A
C1846      H1851   1.084       .  S
C1847      C1848   1.405       .  A
C1848      F1849   1.356       .  S
C1853      C1854   1.410       .  A
C1853      C1858   1.386       .  A
C1853      H1860   1.083       .  S
C1854      C1855   1.403       .  A
C1855      C1856   1.391       .  A
C1855      F1862   1.358       .  S
C1856      C1857   1.403       .  A
C1856      H1861   1.079       .  S
C1857      C1858   1.393       .  A
C1858      F1859   1.358       .  S
C1863      C1864   1.408   1_455  A
C1863      C1868   1.415       .  A
C1863      H1870   1.082       .  S
C1864      C1865   1.410       .  A
C1865      C1866   1.415       .  A
C1865      F1872   1.356       .  S
C1866      C1867   1.418       .  A
C1866      H1871   1.079       .  S
C1867      C1868   1.426   1_655  A
C1868      F1869   1.353       .  S
C1873      C1874   1.406       .  A
C1873      C1878   1.400       .  A
C1873      H1880   1.083       .  S
C1874      C1875   1.415       .  A
C1875      C1876   1.408       .  A
C1875      F1882   1.358       .  S
C1876      C1877   1.405       .  A
C1876      H1881   1.080       .  S
C1877      C1878   1.406       .  A
C1878      F1879   1.357       .  S
C1883      C1884   1.401       .  A
C1883      C1888   1.386       .  A
C1883      H1890   1.084       .  S
C1884      C1885   1.398       .  A
C1885      C1886   1.385       .  A
C1885      F1892   1.358       .  S
C1886      C1887   1.401       .  A
C1886      H1891   1.083       .  S
C1887      C1888   1.401       .  A
C1888      F1889   1.357       .  S
C1893      C1894   1.406       .  A
C1893      C1898   1.398       .  A
C1893      H1900   1.083       .  S
C1894      C1895   1.416       .  A
C1895      C1896   1.403       .  A
C1895      F1902   1.358       .  S
C1896      C1897   1.401       .  A
C1896      H1901   1.083       .  S
C1897      C1898   1.403       .  A
C1898      F1899   1.357       .  S
C1903      C1904   1.403       .  A
C1903      C1908   1.402       .  A
C1903      H1910   1.083       .  S
C1904      C1905   1.405       .  A
C1905      C1906   1.402       .  A
C1905      F1912   1.357       .  S
C1906      C1907   1.403       .  A
C1906      H1911   1.083       .  S
C1907      C1908   1.407       .  A
C1908      F1909   1.357       .  S
C1913      C1914   1.404       .  A
C1913      C1918   1.375       .  A
C1913      H1920   1.084       .  S
C1914      C1915   1.404       .  A
C1915      C1916   1.389       .  A
C1915      F1922   1.358       .  S
C1916      C1917   1.399       .  A
C1916      H1921   1.083       .  S
C1917      C1918   1.391       .  A
C1918      F1919   1.358       .  S
C1923      C1924   1.408   1_455  A
C1923      C1928   1.394       .  A
C1923      H1930   1.082       .  S
C1924      C1925   1.407       .  A
C1925      C1926   1.394       .  A
C1925      F1932   1.356       .  S
C1926      C1927   1.401       .  A
C1926      H1931   1.080       .  S
C1927      C1928   1.396   1_655  A
C1928      F1929   1.357       .  S
C1933      C1934   1.405       .  A
C1933      C1938   1.386       .  A
C1933      H1940   1.083       .  S
C1934      C1935   1.408       .  A
C1935      C1936   1.387       .  A
C1935      F1942   1.355       .  S
C1936      C1937   1.396       .  A
C1936      H1941   1.084       .  S
C1937      C1938   1.398       .  A
C1938      F1939   1.358       .  S
C1943      C1944   1.400       .  A
C1943      C1948   1.396       .  A
C1943      H1950   1.083       .  S
C1944      C1945   1.418       .  A
C1945      C1946   1.390       .  A
C1945      F1952   1.357       .  S
C1946      C1947   1.389       .  A
C1946      H1951   1.084       .  S
C1947      C1948   1.409       .  A
C1948      F1949   1.356       .  S
C1953      C1954   1.394       .  A
C1953      C1958   1.386       .  A
C1953      H1960   1.081       .  S
C1954      C1955   1.406       .  A
C1955      C1956   1.386       .  A
C1955      F1962   1.358       .  S
C1956      C1957   1.396       .  A
C1956      H1961   1.083       .  S
C1957      C1958   1.413       .  A
C1958      F1959   1.359       .  S
C1963      C1964   1.416       .  A
C1963      C1968   1.399       .  A
C1963      H1970   1.079       .  S
C1964      C1965   1.412       .  A
C1965      C1966   1.398       .  A
C1965      F1972   1.355       .  S
C1966      C1967   1.402       .  A
C1966      H1971   1.084       .  S
C1967      C1968   1.400       .  A
C1968      F1969   1.355   1_565  S
C1973      C1974   1.403       .  A
C1973      C1978   1.394       .  A
C1973      H1980   1.083       .  S
C1974      C1975   1.411       .  A
C1975      C1976   1.399       .  A
C1975      F1982   1.357       .  S
C1976      C1977   1.400       .  A
C1976      H1981   1.083       .  S
C1977      C1978   1.406       .  A
C1978      F1979   1.357       .  S
C1983      C1984   1.406       .  A
C1983      C1988   1.402       .  A
C1983      H1990   1.083       .  S
C1984      C1985   1.412       .  A
C1985      C1986   1.389       .  A
C1985      F1992   1.358       .  S
C1986      C1987   1.395       .  A
C1986      H1991   1.084       .  S
C1987      C1988   1.403       .  A
C1988      F1989   1.357       .  S
C1993      C1994   1.407       .  A
C1993      C1998   1.376       .  A
C1993      H2000   1.083       .  S
C1994      C1995   1.406       .  A
C1995      C1996   1.399       .  A
C1995      F2002   1.357       .  S
C1996      C1997   1.401       .  A
C1996      H2001   1.083       .  S
C1997      C1998   1.393       .  A
C1998      F1999   1.359       .  S
C2003      C2004   1.406       .  A
C2003      C2008   1.393       .  A
C2003      H2010   1.083       .  S
C2004      C2005   1.412       .  A
C2005      C2006   1.383       .  A
C2005      F2012   1.358       .  S
C2006      C2007   1.393       .  A
C2006      H2011   1.083       .  S
C2007      C2008   1.398       .  A
C2008      F2009   1.357       .  S
C2013      C2014   1.397       .  A
C2013      C2018   1.400       .  A
C2013      H2020   1.083       .  S
C2014      C2015   1.407       .  A
C2015      C2016   1.409       .  A
C2015      F2022   1.357       .  S
C2016      C2017   1.411       .  A
C2016      H2021   1.081       .  S
C2017      C2018   1.418       .  A
C2018      F2019   1.357       .  S
C2023      C2024   1.402       .  A
C2023      C2028   1.406       .  A
C2023      H2030   1.083       .  S
C2024      C2025   1.412       .  A
C2025      C2026   1.388       .  A
C2025      F2032   1.359       .  S
C2026      C2027   1.391       .  A
C2026      H2031   1.084       .  S
C2027      C2028   1.409       .  A
C2028      F2029   1.357       .  S
C2033      C2034   1.411       .  A
C2033      C2038   1.393       .  A
C2033      H2040   1.083       .  S
C2034      C2035   1.401       .  A
C2035      C2036   1.405       .  A
C2035      F2042   1.356       .  S
C2036      C2037   1.409       .  A
C2036      H2041   1.083   1_655  S
C2037      C2038   1.398       .  A
C2038      F2039   1.357       .  S
C2043      C2044   1.405       .  A
C2043      C2048   1.404       .  A
C2043      H2050   1.082       .  S
C2044      C2045   1.410       .  A
C2045      C2046   1.406       .  A
C2045      F2052   1.357       .  S
C2046      C2047   1.405       .  A
C2046      H2051   1.083       .  S
C2047      C2048   1.406       .  A
C2048      F2049   1.357       .  S
C2053      C2054   1.399       .  A
C2053      C2058   1.385       .  A
C2053      H2060   1.083       .  S
C2054      C2055   1.409       .  A
C2055      C2056   1.382       .  A
C2055      F2062   1.358       .  S
C2056      C2057   1.394       .  A
C2056      H2061   1.084       .  S
C2057      C2058   1.405       .  A
C2058      F2059   1.354       .  S
C2063      C2064   1.408       .  A
C2063      C2068   1.388       .  A
C2063      H2070   1.083       .  S
C2064      C2065   1.405       .  A
C2065      C2066   1.376       .  A
C2065      F2072   1.358       .  S
C2066      C2067   1.395       .  A
C2066      H2071   1.083       .  S
C2067      C2068   1.394       .  A
C2068      F2069   1.357       .  S
C2073      C2074   1.408       .  A
C2073      C2078   1.402       .  A
C2073      H2080   1.083       .  S
C2074      C2075   1.409       .  A
C2075      C2076   1.386       .  A
C2075      F2082   1.358       .  S
C2076      C2077   1.399       .  A
C2076      H2081   1.082       .  S
C2077      C2078   1.405       .  A
C2078      F2079   1.356       .  S
C2083      C2084   1.402       .  A
C2083      C2088   1.377       .  A
C2083      H2090   1.084       .  S
C2084      C2085   1.406       .  A
C2085      C2086   1.402       .  A
C2085      F2092   1.357       .  S
C2086      C2087   1.405       .  A
C2086      H2091   1.083       .  S
C2087      C2088   1.400       .  A
C2088      F2089   1.354       .  S
C2093      C2094   1.407       .  A
C2093      C2098   1.391       .  A
C2093      H2100   1.082       .  S
C2094      C2095   1.407       .  A
C2095      C2096   1.399       .  A
C2095      F2102   1.357       .  S
C2096      C2097   1.403       .  A
C2096      H2101   1.082       .  S
C2097      C2098   1.395       .  A
C2098      F2099   1.357       .  S
C2103      C2104   1.413       .  A
C2103      C2108   1.410       .  A
C2103      H2110   1.080       .  S
C2104      C2105   1.416       .  A
C2105      C2106   1.410       .  A
C2105      F2112   1.357       .  S
C2106      C2107   1.403       .  A
C2106      H2111   1.083       .  S
C2107      C2108   1.408       .  A
C2108      F2109   1.356       .  S
C2113      C2114   1.405       .  A
C2113      C2118   1.391       .  A
C2113      H2120   1.078       .  S
C2114      C2115   1.408       .  A
C2115      C2116   1.404       .  A
C2115      F2122   1.355       .  S
C2116      C2117   1.412       .  A
C2116      H2121   1.079       .  S
C2117      C2118   1.410       .  A
C2118      F2119   1.357       .  S
C2123      C2124   1.405       .  A
C2123      C2128   1.402       .  A
C2123      H2130   1.083       .  S
C2124      C2125   1.407       .  A
C2125      C2126   1.402       .  A
C2125      F2132   1.357       .  S
C2126      C2127   1.403       .  A
C2126      H2131   1.083       .  S
C2127      C2128   1.405       .  A
C2128      F2129   1.356       .  S
C2133      C2134   1.411       .  A
C2133      C2138   1.403       .  A
C2133      H2140   1.083       .  S
C2134      C2135   1.407       .  A
C2135      C2136   1.402       .  A
C2135      F2142   1.354       .  S
C2136      C2137   1.413       .  A
C2136      H2141   1.073       .  S
C2137      C2138   1.411       .  A
C2138      F2139   1.354       .  S
C2143      C2144   1.420       .  A
C2143      C2148   1.402       .  A
C2143      H2150   1.078       .  S
C2144      C2145   1.412       .  A
C2145      C2146   1.406       .  A
C2145      F2152   1.356       .  S
C2146      C2147   1.409       .  A
C2146      H2151   1.084       .  S
C2147      C2148   1.396       .  A
C2148      F2149   1.357   1_556  S
C2153      C2154   1.404       .  A
C2153      C2158   1.401       .  A
C2153      H2160   1.083       .  S
C2154      C2155   1.404       .  A
C2155      C2156   1.400       .  A
C2155      F2162   1.357       .  S
C2156      C2157   1.402       .  A
C2156      H2161   1.083       .  S
C2157      C2158   1.404       .  A
C2158      F2159   1.356       .  S
C2163      C2164   1.411       .  A
C2163      C2168   1.400       .  A
C2163      H2170   1.081       .  S
C2164      C2165   1.405       .  A
C2165      C2166   1.413       .  A
C2165      F2172   1.356       .  S
C2166      C2167   1.412       .  A
C2166      H2171   1.083   1_556  S
C2167      C2168   1.402       .  A
C2168      F2169   1.358       .  S
C2173      C2174   1.414       .  A
C2173      C2178   1.424       .  A
C2173      H2180   1.082       .  S
C2174      C2175   1.430       .  A
C2175      C2176   1.414       .  A
C2175      F2182   1.355       .  S
C2176      C2177   1.402       .  A
C2176      H2181   1.083       .  S
C2177      C2178   1.417       .  A
C2178      F2179   1.356       .  S
C2183      C2184   1.412       .  A
C2183      C2188   1.410       .  A
C2183      H2190   1.082       .  S
C2184      C2185   1.417       .  A
C2185      C2186   1.399       .  A
C2185      F2192   1.355       .  S
C2186      C2187   1.400       .  A
C2186      H2191   1.082       .  S
C2187      C2188   1.408       .  A
C2188      F2189   1.356       .  S
C2193      C2194   1.414       .  A
C2193      C2198   1.408       .  A
C2193      H2200   1.080       .  S
C2194      C2195   1.421       .  A
C2195      C2196   1.401       .  A
C2195      F2202   1.355       .  S
C2196      C2197   1.399       .  A
C2196      H2201   1.083       .  S
C2197      C2198   1.406       .  A
C2198      F2199   1.357       .  S
C2203      C2204   1.405       .  A
C2203      C2208   1.412       .  A
C2203      H2210   1.082       .  S
C2204      C2205   1.424       .  A
C2205      C2206   1.403       .  A
C2205      F2212   1.356       .  S
C2206      C2207   1.397       .  A
C2206      H2211   1.084       .  S
C2207      C2208   1.415       .  A
C2208      F2209   1.357       .  S
C2213      C2214   1.408       .  A
C2213      C2218   1.416       .  A
C2213      H2220   1.083       .  S
C2214      C2215   1.415       .  A
C2215      C2216   1.423       .  A
C2215      F2222   1.356       .  S
C2216      C2217   1.412       .  A
C2216      H2221   1.083       .  S
C2217      C2218   1.417       .  A
C2218      F2219   1.358       .  S
C2223      C2224   1.400       .  A
C2223      C2228   1.389       .  A
C2223      H2230   1.083       .  S
C2224      C2225   1.397       .  A
C2225      C2226   1.388       .  A
C2225      F2232   1.357       .  S
C2226      C2227   1.403       .  A
C2226      H2231   1.084       .  S
C2227      C2228   1.404       .  A
C2228      F2229   1.358       .  S
C2233      C2234   1.400       .  A
C2233      C2238   1.404       .  A
C2233      H2240   1.084       .  S
C2234      C2235   1.405       .  A
C2235      C2236   1.407       .  A
C2235      F2242   1.357       .  S
C2236      C2237   1.414       .  A
C2236      H2241   1.081       .  S
C2237      C2238   1.420       .  A
C2238      F2239   1.354       .  S
C2243      C2244   1.411       .  A
C2243      C2248   1.423       .  A
C2243      H2250   1.083       .  S
C2244      C2245   1.409       .  A
C2245      C2246   1.420       .  A
C2245      F2252   1.356       .  S
C2246      C2247   1.420       .  A
C2246      H2251   1.082       .  S
C2247      C2248   1.423       .  A
C2248      F2249   1.354       .  S
C2253      C2254   1.400       .  A
C2253      C2258   1.395       .  A
C2253      H2260   1.082       .  S
C2254      C2255   1.409       .  A
C2255      C2256   1.400       .  A
C2255      F2262   1.356       .  S
C2256      C2257   1.403       .  A
C2256      H2261   1.083       .  S
C2257      C2258   1.415       .  A
C2258      F2259   1.358       .  S
C2263      C2264   1.394       .  A
C2263      C2268   1.382       .  A
C2263      H2270   1.082       .  S
C2264      C2265   1.393       .  A
C2265      C2266   1.386       .  A
C2265      F2272   1.357       .  S
C2266      C2267   1.405       .  A
C2266      H2271   1.083       .  S
C2267      C2268   1.407       .  A
C2268      F2269   1.358       .  S
C2273      C2274   1.398       .  A
C2273      C2278   1.393       .  A
C2273      H2280   1.083       .  S
C2274      C2275   1.406       .  A
C2275      C2276   1.387       .  A
C2275      F2282   1.356       .  S
C2276      C2277   1.394       .  A
C2276      H2281   1.084       .  S
C2277      C2278   1.403       .  A
C2278      F2279   1.358       .  S
C2283      C2284   1.396       .  A
C2283      C2288   1.401       .  A
C2283      H2290   1.083       .  S
C2284      C2285   1.413       .  A
C2285      C2286   1.416       .  A
C2285      F2292   1.357       .  S
C2286      C2287   1.409       .  A
C2286      H2291   1.081       .  S
C2287      C2288   1.422       .  A
C2288      F2289   1.358       .  S
C2293      C2294   1.409       .  A
C2293      C2298   1.411       .  A
C2293      H2300   1.083       .  S
C2294      C2295   1.401       .  A
C2295      C2296   1.400       .  A
C2295      F2302   1.357       .  S
C2296      C2297   1.412       .  A
C2296      H2301   1.082       .  S
C2297      C2298   1.411       .  A
C2298      F2299   1.356       .  S
C2303      C2304   1.396       .  A
C2303      C2308   1.379       .  A
C2303      H2310   1.080       .  S
C2304      C2305   1.394       .  A
C2305      C2306   1.379       .  A
C2305      F2312   1.358       .  S
C2306      C2307   1.402       .  A
C2306      H2311   1.084       .  S
C2307      C2308   1.400       .  A
C2308      F2309   1.358       .  S
C2313      C2314   1.410       .  A
C2313      C2318   1.412       .  A
C2313      H2320   1.083       .  S
C2314      C2315   1.418       .  A
C2315      C2316   1.400       .  A
C2315      F2322   1.358       .  S
C2316      C2317   1.400       .  A
C2316      H2321   1.082       .  S
C2317      C2318   1.409       .  A
C2318      F2319   1.356       .  S
C2323      C2324   1.400       .  A
C2323      C2328   1.390       .  A
C2323      H2330   1.084       .  S
C2324      C2325   1.399       .  A
C2325      C2326   1.397       .  A
C2325      F2332   1.357       .  S
C2326      C2327   1.406       .  A
C2326      H2331   1.083       .  S
C2327      C2328   1.400       .  A
C2328      F2329   1.357       .  S
C2333      C2334   1.403       .  A
C2333      C2338   1.405       .  A
C2333      H2340   1.083       .  S
C2334      C2335   1.399       .  A
C2335      C2336   1.397       .  A
C2335      F2342   1.357       .  S
C2336      C2337   1.415       .  A
C2336      H2341   1.079       .  S
C2337      C2338   1.415       .  A
C2338      F2339   1.355       .  S
C2343      C2344   1.414       .  A
C2343      C2348   1.410       .  A
C2343      H2350   1.077       .  S
C2344      C2345   1.418       .  A
C2345      C2346   1.413       .  A
C2345      F2352   1.357       .  S
C2346      C2347   1.406       .  A
C2346      H2351   1.083       .  S
C2347      C2348   1.407       .  A
C2348      F2349   1.357       .  S
C2353      C2354   1.408       .  A
C2353      C2358   1.408       .  A
C2353      H2360   1.083       .  S
C2354      C2355   1.412       .  A
C2355      C2356   1.388       .  A
C2355      F2362   1.358       .  S
C2356      C2357   1.399       .  A
C2356      H2361   1.080       .  S
C2357      C2358   1.410       .  A
C2358      F2359   1.357       .  S
C2363      C2364   1.397       .  A
C2363      C2368   1.378       .  A
C2363      H2370   1.084       .  S
C2364      C2365   1.402       .  A
C2365      C2366   1.395       .  A
C2365      F2372   1.357       .  S
C2366      C2367   1.400       .  A
C2366      H2371   1.083       .  S
C2367      C2368   1.397       .  A
C2368      F2369   1.358       .  S
C2373      C2374   1.398       .  A
C2373      C2378   1.393       .  A
C2373      H2380   1.083       .  S
C2374      C2375   1.401       .  A
C2375      C2376   1.383       .  A
C2375      F2382   1.357       .  S
C2376      C2377   1.401       .  A
C2376      H2381   1.083       .  S
C2377      C2378   1.407       .  A
C2378      F2379   1.358       .  S
C2383      C2384   1.420       .  A
C2383      C2388   1.413       .  A
C2383      H2390   1.071       .  S
C2384      C2385   1.419       .  A
C2385      C2386   1.403       .  A
C2385      F2392   1.349       .  S
C2386      C2387   1.403       .  A
C2386      H2391   1.076       .  S
C2387      C2388   1.413       .  A
C2388      F2389   1.358       .  S
C2393      C2394   1.411       .  A
C2393      C2398   1.413       .  A
C2393      H2400   1.082       .  S
C2394      C2395   1.421       .  A
C2395      C2396   1.415       .  A
C2395      F2402   1.356       .  S
C2396      C2397   1.407       .  A
C2396      H2401   1.083       .  S
C2397      C2398   1.413       .  A
C2398      F2399   1.357       .  S
C2403      C2404   1.394       .  A
C2403      C2408   1.370       .  A
C2403      H2410   1.085       .  S
C2404      C2405   1.396       .  A
C2405      C2406   1.386       .  A
C2405      F2412   1.358       .  S
C2406      C2407   1.406       .  A
C2406      H2411   1.083       .  S
C2407      C2408   1.402       .  A
C2408      F2409   1.358       .  S
C2413      C2414   1.413       .  A
C2413      C2418   1.396       .  A
C2413      H2420   1.081       .  S
C2414      C2415   1.409       .  A
C2415      C2416   1.409       .  A
C2415      F2422   1.356       .  S
C2416      C2417   1.410       .  A
C2416      H2421   1.079       .  S
C2417      C2418   1.399       .  A
C2418      F2419   1.357       .  S
C2423      C2424   1.402       .  A
C2423      C2428   1.397       .  A
C2423      H2430   1.075       .  S
C2424      C2425   1.420       .  A
C2425      C2426   1.398       .  A
C2425      F2432   1.358       .  S
C2426      C2427   1.394       .  A
C2426      H2431   1.083       .  S
C2427      C2428   1.407       .  A
C2428      F2429   1.358       .  S
C2433      C2434   1.403       .  A
C2433      C2438   1.400       .  A
C2433      H2440   1.083       .  S
C2434      C2435   1.404       .  A
C2435      C2436   1.397       .  A
C2435      F2442   1.357       .  S
C2436      C2437   1.403       .  A
C2436      H2441   1.079       .  S
C2437      C2438   1.405       .  A
C2438      F2439   1.358       .  S
C2443      C2444   1.406       .  A
C2443      C2448   1.401       .  A
C2443      H2450   1.082       .  S
C2444      C2445   1.413       .  A
C2445      C2446   1.401       .  A
C2445      F2452   1.355   1_554  S
C2446      C2447   1.400       .  A
C2446      H2451   1.083   1_554  S
C2447      C2448   1.407       .  A
C2448      F2449   1.355       .  S
C2453      C2454   1.411       .  A
C2453      C2458   1.398       .  A
C2453      H2460   1.083       .  S
C2454      C2455   1.402       .  A
C2455      C2456   1.388       .  A
C2455      F2462   1.357       .  S
C2456      C2457   1.406       .  A
C2456      H2461   1.080   1_655  S
C2457      C2458   1.397       .  A
C2458      F2459   1.357       .  S
C2463      C2464   1.410       .  A
C2463      C2468   1.418       .  A
C2463      H2470   1.081       .  S
C2464      C2465   1.422       .  A
C2465      C2466   1.416       .  A
C2465      F2472   1.357       .  S
C2466      C2467   1.405       .  A
C2466      H2471   1.083       .  S
C2467      C2468   1.415       .  A
C2468      F2469   1.357       .  S
C2473      C2474   1.409       .  A
C2473      C2478   1.410       .  A
C2473      H2480   1.083       .  S
C2474      C2475   1.407       .  A
C2475      C2476   1.409       .  A
C2475      F2482   1.356       .  S
C2476      C2477   1.406       .  A
C2476      H2481   1.083       .  S
C2477      C2478   1.409       .  A
C2478      F2479   1.357       .  S
C2483      C2484   1.406       .  A
C2483      C2488   1.389       .  A
C2483      H2490   1.083       .  S
C2484      C2485   1.401       .  A
C2485      C2486   1.403       .  A
C2485      F2492   1.356       .  S
C2486      C2487   1.407   1_655  A
C2486      H2491   1.083   1_655  S
C2487      C2488   1.399   1_455  A
C2488      F2489   1.358       .  S
C2493      C2494   1.420       .  A
C2493      C2498   1.417       .  A
C2493      H2500   1.082       .  S
C2494      C2495   1.424       .  A
C2495      C2496   1.426       .  A
C2495      F2502   1.355       .  S
C2496      C2497   1.412       .  A
C2496      H2501   1.083       .  S
C2497      C2498   1.409       .  A
C2498      F2499   1.357       .  S
C2503      C2504   1.420       .  A
C2503      C2508   1.434       .  A
C2503      H2510   1.082       .  S
C2504      C2505   1.422       .  A
C2505      C2506   1.431       .  A
C2505      F2512   1.356       .  S
C2506      C2507   1.415       .  A
C2506      H2511   1.082       .  S
C2507      C2508   1.421       .  A
C2508      F2509   1.355       .  S
C2513      C2514   1.400       .  A
C2513      C2518   1.398       .  A
C2513      H2520   1.083       .  S
C2514      C2515   1.412       .  A
C2515      C2516   1.378       .  A
C2515      F2522   1.358       .  S
C2516      C2517   1.390       .  A
C2516      H2521   1.084       .  S
C2517      C2518   1.406       .  A
C2518      F2519   1.357       .  S
C2523      C2524   1.424       .  A
C2523      C2528   1.447       .  A
C2523      H2530   1.082       .  S
C2524      C2525   1.438       .  A
C2525      C2526   1.452       .  A
C2525      F2532   1.356       .  S
C2526      C2527   1.424       .  A
C2526      H2531   1.082       .  S
C2527      C2528   1.433       .  A
C2528      F2529   1.356       .  S
C2533      C2534   1.393       .  A
C2533      C2538   1.379       .  A
C2533      H2540   1.083       .  S
C2534      C2535   1.397       .  A
C2535      C2536   1.386       .  A
C2535      F2542   1.357       .  S
C2536      C2537   1.406       .  A
C2536      H2541   1.083       .  S
C2537      C2538   1.410       .  A
C2538      F2539   1.358       .  S
C2543      C2544   1.407       .  A
C2543      C2548   1.397       .  A
C2543      H2550   1.083       .  S
C2544      C2545   1.408       .  A
C2545      C2546   1.387       .  A
C2545      F2552   1.358       .  S
C2546      C2547   1.398       .  A
C2546      H2551   1.084       .  S
C2547      C2548   1.400       .  A
C2548      F2549   1.357       .  S
C2553      C2554   1.419       .  A
C2553      C2558   1.446       .  A
C2553      H2560   1.082       .  S
C2554      C2555   1.434       .  A
C2555      C2556   1.447       .  A
C2555      F2562   1.356       .  S
C2556      C2557   1.422       .  A
C2556      H2561   1.078       .  S
C2557      C2558   1.438       .  A
C2558      F2559   1.356       .  S
C2563      C2564   1.416       .  A
C2563      C2568   1.436       .  A
C2563      H2570   1.082       .  S
C2564      C2565   1.419       .  A
C2565      C2566   1.429       .  A
C2565      F2572   1.356       .  S
C2566      C2567   1.418       .  A
C2566      H2571   1.075       .  S
C2567      C2568   1.429       .  A
C2568      F2569   1.356       .  S
C2573      C2574   1.402       .  A
C2573      C2578   1.376       .  A
C2573      H2580   1.083       .  S
C2574      C2575   1.399       .  A
C2575      C2576   1.391       .  A
C2575      F2582   1.357       .  S
C2576      C2577   1.401       .  A
C2576      H2581   1.081       .  S
C2577      C2578   1.393       .  A
C2578      F2579   1.359       .  S
C2583      C2584   1.407       .  A
C2583      C2588   1.404       .  A
C2583      H2590   1.083       .  S
C2584      C2585   1.402       .  A
C2585      C2586   1.399       .  A
C2585      F2592   1.356       .  S
C2586      C2587   1.405       .  A
C2586      H2591   1.083       .  S
C2587      C2588   1.406       .  A
C2588      F2589   1.358       .  S
C2593      C2594   1.400       .  A
C2593      C2598   1.383       .  A
C2593      H2600   1.083       .  S
C2594      C2595   1.400       .  A
C2595      C2596   1.395       .  A
C2595      F2602   1.357       .  S
C2596      C2597   1.403       .  A
C2596      H2601   1.084       .  S
C2597      C2598   1.400       .  A
C2598      F2599   1.358       .  S
C2603      C2604   1.403       .  A
C2603      C2608   1.397       .  A
C2603      H2610   1.083       .  S
C2604      C2605   1.399       .  A
C2605      C2606   1.391       .  A
C2605      F2612   1.358       .  S
C2606      C2607   1.403       .  A
C2606      H2611   1.083       .  S
C2607      C2608   1.401       .  A
C2608      F2609   1.357       .  S
C2613      C2614   1.411       .  A
C2613      C2618   1.403       .  A
C2613      H2620   1.073       .  S
C2614      C2615   1.413       .  A
C2615      C2616   1.405       .  A
C2615      F2622   1.356       .  S
C2616      C2617   1.411       .  A
C2616      H2621   1.083       .  S
C2617      C2618   1.410       .  A
C2618      F2619   1.354       .  S
C2623      C2624   1.404       .  A
C2623      C2628   1.389       .  A
C2623      H2630   1.083       .  S
C2624      C2625   1.406       .  A
C2625      C2626   1.399       .  A
C2625      F2632   1.356       .  S
C2626      C2627   1.401       .  A
C2626      H2631   1.083       .  S
C2627      C2628   1.397       .  A
C2628      F2629   1.356       .  S
C2633      C2634   1.394       .  A
C2633      C2638   1.388       .  A
C2633      H2640   1.083       .  S
C2634      C2635   1.403       .  A
C2635      C2636   1.379       .  A
C2635      F2642   1.354       .  S
C2636      C2637   1.391       .  A
C2636      H2641   1.085       .  S
C2637      C2638   1.403       .  A
C2638      F2639   1.358       .  S
C2643      C2644   1.394       .  A
C2643      C2648   1.386       .  A
C2643      H2650   1.083       .  S
C2644      C2645   1.405       .  A
C2645      C2646   1.380       .  A
C2645      F2652   1.355       .  S
C2646      C2647   1.393       .  A
C2646      H2651   1.084       .  S
C2647      C2648   1.401       .  A
C2648      F2649   1.358       .  S
C2653      C2654   1.411       .  A
C2653      C2658   1.407       .  A
C2653      H2660   1.079       .  S
C2654      C2655   1.410       .  A
C2655      C2656   1.405       .  A
C2655      F2662   1.357       .  S
C2656      C2657   1.402       .  A
C2656      H2661   1.083       .  S
C2657      C2658   1.404       .  A
C2658      F2659   1.357       .  S
C2663      C2664   1.410       .  A
C2663      C2668   1.402       .  A
C2663      H2670   1.083       .  S
C2664      C2665   1.411       .  A
C2665      C2666   1.404       .  A
C2665      F2672   1.353       .  S
C2666      C2667   1.402       .  A
C2666      H2671   1.083       .  S
C2667      C2668   1.403       .  A
C2668      F2669   1.356       .  S
C2673      C2674   1.392       .  A
C2673      C2678   1.378       .  A
C2673      H2680   1.084       .  S
C2674      C2675   1.404       .  A
C2675      C2676   1.378       .  A
C2675      F2682   1.358       .  S
C2676      C2677   1.392       .  A
C2676      H2681   1.084       .  S
C2677      C2678   1.399       .  A
C2678      F2679   1.358       .  S
C2683      C2684   1.401       .  A
C2683      C2688   1.394       .  A
C2683      H2690   1.083       .  S
C2684      C2685   1.401       .  A
C2685      C2686   1.388       .  A
C2685      F2692   1.358       .  S
C2686      C2687   1.400       .  A
C2686      H2691   1.083       .  S
C2687      C2688   1.404       .  A
C2688      F2689   1.356       .  S
C2693      C2694   1.407       .  A
C2693      C2698   1.412       .  A
C2693      H2700   1.083       .  S
C2694      C2695   1.403       .  A
C2695      C2696   1.400       .  A
C2695      F2702   1.358       .  S
C2696      C2697   1.411       .  A
C2696      H2701   1.083       .  S
C2697      C2698   1.414       .  A
C2698      F2699   1.357       .  S
C2703      C2704   1.397       .  A
C2703      C2708   1.392       .  A
C2703      H2710   1.083       .  S
C2704      C2705   1.398       .  A
C2705      C2706   1.393       .  A
C2705      F2712   1.357       .  S
C2706      C2707   1.409       .  A
C2706      H2711   1.083       .  S
C2707      C2708   1.409       .  A
C2708      F2709   1.356       .  S
C2713      C2714   1.401       .  A
C2713      C2718   1.398       .  A
C2713      H2720   1.084       .  S
C2714      C2715   1.399       .  A
C2715      C2716   1.396       .  A
C2715      F2722   1.357       .  S
C2716      C2717   1.408       .  A
C2716      H2721   1.082       .  S
C2717      C2718   1.412       .  A
C2718      F2719   1.356       .  S
C2723      C2724   1.396       .  A
C2723      C2728   1.388       .  A
C2723      H2730   1.084       .  S
C2724      C2725   1.403       .  A
C2725      C2726   1.400       .  A
C2725      F2732   1.356       .  S
C2726      C2727   1.408       .  A
C2726      H2731   1.083       .  S
C2727      C2728   1.411       .  A
C2728      F2729   1.357       .  S
C2733      C2734   1.398   1_556  A
C2733      C2738   1.401   1_556  A
C2733      H2740   1.082       .  S
C2734      C2735   1.400       .  A
C2735      C2736   1.402       .  A
C2735      F2742   1.357       .  S
C2736      C2737   1.412       .  A
C2736      H2741   1.081       .  S
C2737      C2738   1.418       .  A
C2738      F2739   1.356   1_554  S
C2743      C2744   1.407       .  A
C2743      C2748   1.405       .  A
C2743      H2750   1.083       .  S
C2744      C2745   1.408       .  A
C2745      C2746   1.415       .  A
C2745      F2752   1.356       .  S
C2746      C2747   1.410       .  A
C2746      H2751   1.083       .  S
C2747      C2748   1.408       .  A
C2748      F2749   1.357       .  S
C2753      C2754   1.417       .  A
C2753      C2758   1.405       .  A
C2753      H2760   1.081       .  S
C2754      C2755   1.419       .  A
C2755      C2756   1.415       .  A
C2755      F2762   1.355       .  S
C2756      C2757   1.406       .  A
C2756      H2761   1.083       .  S
C2757      C2758   1.403       .  A
C2758      F2759   1.357       .  S
C2763      C2764   1.415       .  A
C2763      C2768   1.424       .  A
C2763      H2770   1.082       .  S
C2764      C2765   1.423       .  A
C2765      C2766   1.412       .  A
C2765      F2772   1.356       .  S
C2766      C2767   1.403       .  A
C2766      H2771   1.083       .  S
C2767      C2768   1.414       .  A
C2768      F2769   1.356       .  S
C2773      C2774   1.406       .  A
C2773      C2778   1.407       .  A
C2773      H2780   1.083       .  S
C2774      C2775   1.405       .  A
C2775      C2776   1.394       .  A
C2775      F2782   1.357       .  S
C2776      C2777   1.403       .  A
C2776      H2781   1.083       .  S
C2777      C2778   1.405       .  A
C2778      F2779   1.357       .  S
C2783      C2784   1.402       .  A
C2783      C2788   1.427       .  A
C2783      H2790   1.082       .  S
C2784      C2785   1.454       .  A
C2785      C2786   1.426       .  A
C2785      F2792   1.357       .  S
C2786      C2787   1.395       .  A
C2786      H2791   1.083       .  S
C2787      C2788   1.439       .  A
C2788      F2789   1.355       .  S
C2793      C2794   1.416       .  A
C2793      C2798   1.404       .  A
C2793      H2800   1.079       .  S
C2794      C2795   1.419   1_556  A
C2795      C2796   1.408       .  A
C2795      F2802   1.355       .  S
C2796      C2797   1.404       .  A
C2796      H2801   1.083       .  S
C2797      C2798   1.402   1_554  A
C2798      F2799   1.357       .  S
C2803      C2804   1.419       .  A
C2803      C2808   1.424       .  A
C2803      H2810   1.079       .  S
C2804      C2805   1.425       .  A
C2805      C2806   1.429       .  A
C2805      F2812   1.356       .  S
C2806      C2807   1.413       .  A
C2806      H2811   1.083       .  S
C2807      C2808   1.413       .  A
C2808      F2809   1.357       .  S
C2813      C2814   1.399       .  A
C2813      C2818   1.392       .  A
C2813      H2820   1.083       .  S
C2814      C2815   1.397       .  A
C2815      C2816   1.389       .  A
C2815      F2822   1.357       .  S
C2816      C2817   1.404       .  A
C2816      H2821   1.075       .  S
C2817      C2818   1.404       .  A
C2818      F2819   1.358       .  S
C2823      C2824   1.399       .  A
C2823      C2828   1.394       .  A
C2823      H2830   1.083       .  S
C2824      C2825   1.406       .  A
C2825      C2826   1.403       .  A
C2825      F2832   1.357       .  S
C2826      C2827   1.404       .  A
C2826      H2831   1.083       .  S
C2827      C2828   1.404       .  A
C2828      F2829   1.358       .  S
C2833      C2834   1.399       .  A
C2833      C2838   1.392       .  A
C2833      H2840   1.081       .  S
C2834      C2835   1.403       .  A
C2835      C2836   1.391       .  A
C2835      F2842   1.357       .  S
C2836      C2837   1.402       .  A
C2836      H2841   1.083       .  S
C2837      C2838   1.407       .  A
C2838      F2839   1.358       .  S
C2843      C2844   1.412       .  A
C2843      C2848   1.423       .  A
C2843      H2850   1.083       .  S
C2844      C2845   1.408       .  A
C2845      C2846   1.415       .  A
C2845      F2852   1.354       .  S
C2846      C2847   1.421       .  A
C2846      H2851   1.079       .  S
C2847      C2848   1.420       .  A
C2848      F2849   1.355       .  S
C2853      C2854   1.416       .  A
C2853      C2858   1.430       .  A
C2853      H2860   1.081       .  S
C2854      C2855   1.431       .  A
C2855      C2856   1.420       .  A
C2855      F2862   1.355       .  S
C2856      C2857   1.408       .  A
C2856      H2861   1.077       .  S
C2857      C2858   1.425       .  A
C2858      F2859   1.356       .  S
C2863      C2864   1.395       .  A
C2863      C2868   1.390       .  A
C2863      H2870   1.084       .  S
C2864      C2865   1.401       .  A
C2865      C2866   1.389       .  A
C2865      F2872   1.357       .  S
C2866      C2867   1.400       .  A
C2866      H2871   1.083       .  S
C2867      C2868   1.407       .  A
C2868      F2869   1.358       .  S
C2873      C2874   1.405       .  A
C2873      C2878   1.395       .  A
C2873      H2880   1.084       .  S
C2874      C2875   1.403       .  A
C2875      C2876   1.398       .  A
C2875      F2882   1.357       .  S
C2876      C2877   1.402       .  A
C2876      H2881   1.083       .  S
C2877      C2878   1.400       .  A
C2878      F2879   1.357       .  S
C2883      C2884   1.407       .  A
C2883      C2888   1.411       .  A
C2883      H2890   1.083       .  S
C2884      C2885   1.410       .  A
C2885      C2886   1.400       .  A
C2885      F2892   1.356       .  S
C2886      C2887   1.402       .  A
C2886      H2891   1.084       .  S
C2887      C2888   1.412       .  A
C2888      F2889   1.357       .  S
C2893      C2894   1.403       .  A
C2893      C2898   1.404       .  A
C2893      H2900   1.083       .  S
C2894      C2895   1.408       .  A
C2895      C2896   1.412       .  A
C2895      F2902   1.357       .  S
C2896      C2897   1.408       .  A
C2896      H2901   1.083       .  S
C2897      C2898   1.409       .  A
C2898      F2899   1.357       .  S
C2903      C2904   1.409       .  A
C2903      C2908   1.403       .  A
C2903      H2910   1.082       .  S
C2904      C2905   1.414       .  A
C2905      C2906   1.410       .  A
C2905      F2912   1.354       .  S
C2906      C2907   1.412       .  A
C2906      H2911   1.078       .  S
C2907      C2908   1.414       .  A
C2908      F2909   1.348       .  S
C2913      C2914   1.402       .  A
C2913      C2918   1.403       .  A
C2913      H2920   1.083       .  S
C2914      C2915   1.406       .  A
C2915      C2916   1.397       .  A
C2915      F2922   1.358       .  S
C2916      C2917   1.403       .  A
C2916      H2921   1.083       .  S
C2917      C2918   1.409       .  A
C2918      F2919   1.357       .  S
C2923      C2924   1.408       .  A
C2923      C2928   1.393       .  A
C2923      H2930   1.082       .  S
C2924      C2925   1.406       .  A
C2925      C2926   1.397       .  A
C2925      F2932   1.356       .  S
C2926      C2927   1.406       .  A
C2926      H2931   1.081       .  S
C2927      C2928   1.399       .  A
C2928      F2929   1.357       .  S
C2933      C2934   1.403       .  A
C2933      C2938   1.394       .  A
C2933      H2940   1.083       .  S
C2934      C2935   1.408       .  A
C2935      C2936   1.383       .  A
C2935      F2942   1.357       .  S
C2936      C2937   1.395       .  A
C2936      H2941   1.084       .  S
C2937      C2938   1.399       .  A
C2938      F2939   1.357       .  S
C2943      C2944   1.423       .  A
C2943      C2948   1.426       .  A
C2943      H2950   1.079       .  S
C2944      C2945   1.423       .  A
C2945      C2946   1.434       .  A
C2945      F2952   1.356       .  S
C2946      C2947   1.417       .  A
C2946      H2951   1.083       .  S
C2947      C2948   1.413       .  A
C2948      F2949   1.356       .  S
C2953      C2954   1.405       .  A
C2953      C2958   1.402       .  A
C2953      H2960   1.083       .  S
C2954      C2955   1.407       .  A
C2955      C2956   1.405       .  A
C2955      F2962   1.357       .  S
C2956      C2957   1.405       .  A
C2956      H2961   1.083       .  S
C2957      C2958   1.404       .  A
C2958      F2959   1.356       .  S
C2963      C2964   1.396       .  A
C2963      C2968   1.394       .  A
C2963      H2970   1.084       .  S
C2964      C2965   1.405       .  A
C2965      C2966   1.399       .  A
C2965      F2972   1.357       .  S
C2966      C2967   1.405       .  A
C2966      H2971   1.083       .  S
C2967      C2968   1.414       .  A
C2968      F2969   1.357       .  S
C2973      C2974   1.414       .  A
C2973      C2978   1.431       .  A
C2973      H2980   1.082       .  S
C2974      C2975   1.414       .  A
C2975      C2976   1.430       .  A
C2975      F2982   1.357       .  S
C2976      C2977   1.425       .  A
C2976      H2981   1.080       .  S
C2977      C2978   1.429       .  A
C2978      F2979   1.354       .  S
C2983      C2984   1.411       .  A
C2983      C2988   1.424       .  A
C2983      H2990   1.083       .  S
C2984      C2985   1.411       .  A
C2985      C2986   1.422       .  A
C2985      F2992   1.356       .  S
C2986      C2987   1.419       .  A
C2986      H2991   1.080       .  S
C2987      C2988   1.423       .  A
C2988      F2989   1.356       .  S
C2993      C2994   1.404       .  A
C2993      C2998   1.391       .  A
C2993      H3000   1.083       .  S
C2994      C2995   1.403       .  A
C2995      C2996   1.389       .  A
C2995      F3002   1.358       .  S
C2996      C2997   1.398       .  A
C2996      H3001   1.084       .  S
C2997      C2998   1.397       .  A
C2998      F2999   1.357       .  S
C3003      C3004   1.400       .  A
C3003      C3008   1.392       .  A
C3003      H3010   1.083       .  S
C3004      C3005   1.400       .  A
C3005      C3006   1.398       .  A
C3005      F3012   1.357       .  S
C3006      C3007   1.409       .  A
C3006      H3011   1.083       .  S
C3007      C3008   1.409       .  A
C3008      F3009   1.358       .  S
C3013      C3014   1.400       .  A
C3013      C3018   1.388       .  A
C3013      H3020   1.084       .  S
C3014      C3015   1.409       .  A
C3015      C3016   1.399       .  A
C3015      F3022   1.355       .  S
C3016      C3017   1.400       .  A
C3016      H3021   1.084       .  S
C3017      C3018   1.401       .  A
C3018      F3019   1.358       .  S
C3023      C3024   1.393       .  A
C3023      C3028   1.388       .  A
C3023      H3030   1.084       .  S
C3024      C3025   1.402       .  A
C3025      C3026   1.398       .  A
C3025      F3032   1.358       .  S
C3026      C3027   1.408       .  A
C3026      H3031   1.081       .  S
C3027      C3028   1.417       .  A
C3028      F3029   1.355       .  S
C3033      C3034   1.406       .  A
C3033      C3038   1.395       .  A
C3033      H3040   1.082       .  S
C3034      C3035   1.411       .  A
C3035      C3036   1.393       .  A
C3035      F3042   1.356       .  S
C3036      C3037   1.396       .  A
C3036      H3041   1.083       .  S
C3037      C3038   1.402       .  A
C3038      F3039   1.358       .  S
C3043      C3044   1.401       .  A
C3043      C3048   1.402       .  A
C3043      H3050   1.083       .  S
C3044      C3045   1.407       .  A
C3045      C3046   1.399       .  A
C3045      F3052   1.356       .  S
C3046      C3047   1.406       .  A
C3046      H3051   1.083       .  S
C3047      C3048   1.413       .  A
C3048      F3049   1.357       .  S
C3053      C3054   1.408   1_655  A
C3053      C3058   1.412       .  A
C3053      H3060   1.083       .  S
C3054      C3055   1.406       .  A
C3055      C3056   1.409       .  A
C3055      F3062   1.356       .  S
C3056      C3057   1.409       .  A
C3056      H3061   1.083       .  S
C3057      C3058   1.410   1_455  A
C3058      F3059   1.356       .  S
C3063      C3064   1.422       .  A
C3063      C3068   1.442       .  A
C3063      H3070   1.083       .  S
C3064      C3065   1.416       .  A
C3065      C3066   1.426       .  A
C3065      F3072   1.357       .  S
C3066      C3067   1.424       .  A
C3066      H3071   1.078       .  S
C3067      C3068   1.428       .  A
C3068      F3069   1.356       .  S
C3073      C3074   1.403       .  A
C3073      C3078   1.402       .  A
C3073      H3080   1.083       .  S
C3074      C3075   1.403       .  A
C3075      C3076   1.386       .  A
C3075      F3082   1.354       .  S
C3076      C3077   1.403       .  A
C3076      H3081   1.082       .  S
C3077      C3078   1.408       .  A
C3078      F3079   1.356       .  S
C3083      C3084   1.410       .  A
C3083      C3088   1.404       .  A
C3083      H3090   1.082       .  S
C3084      C3085   1.414       .  A
C3085      C3086   1.408       .  A
C3085      F3092   1.356       .  S
C3086      C3087   1.404       .  A
C3086      H3091   1.083       .  S
C3087      C3088   1.403       .  A
C3088      F3089   1.356       .  S
C3093      C3094   1.411       .  A
C3093      C3098   1.398       .  A
C3093      H3100   1.081       .  S
C3094      C3095   1.411       .  A
C3095      C3096   1.408       .  A
C3095      F3102   1.356       .  S
C3096      C3097   1.406       .  A
C3096      H3101   1.083       .  S
C3097      C3098   1.404       .  A
C3098      F3099   1.357       .  S
C3103      C3104   1.422       .  A
C3103      C3108   1.424       .  A
C3103      H3110   1.081       .  S
C3104      C3105   1.422       .  A
C3105      C3106   1.429       .  A
C3105      F3112   1.355       .  S
C3106      C3107   1.415       .  A
C3106      H3111   1.083       .  S
C3107      C3108   1.413       .  A
C3108      F3109   1.357       .  S
C3113      C3114   1.399       .  A
C3113      C3118   1.397       .  A
C3113      H3120   1.083       .  S
C3114      C3115   1.402       .  A
C3115      C3116   1.401       .  A
C3115      F3122   1.356       .  S
C3116      C3117   1.408       .  A
C3116      H3121   1.082       .  S
C3117      C3118   1.410       .  A
C3118      F3119   1.357       .  S
C3123      C3124   1.399       .  A
C3123      C3128   1.404       .  A
C3123      H3130   1.083       .  S
C3124      C3125   1.401       .  A
C3125      C3126   1.396       .  A
C3125      F3132   1.358       .  S
C3126      C3127   1.411       .  A
C3126      H3131   1.082       .  S
C3127      C3128   1.417       .  A
C3128      F3129   1.356       .  S
C3133      C3134   1.405       .  A
C3133      C3138   1.397       .  A
C3133      H3140   1.082       .  S
C3134      C3135   1.415       .  A
C3135      C3136   1.399       .  A
C3135      F3142   1.356   1_655  S
C3136      C3137   1.398       .  A
C3136      H3141   1.083   1_545  S
C3137      C3138   1.402       .  A
C3138      F3139   1.358       .  S
C3143      C3144   1.403       .  A
C3143      C3148   1.401       .  A
C3143      H3150   1.083       .  S
C3144      C3145   1.409       .  A
C3145      C3146   1.409       .  A
C3145      F3152   1.356       .  S
C3146      C3147   1.407       .  A
C3146      H3151   1.083       .  S
C3147      C3148   1.411       .  A
C3148      F3149   1.358       .  S
C3153      C3154   1.398       .  A
C3153      C3158   1.381       .  A
C3153      H3160   1.083       .  S
C3154      C3155   1.399       .  A
C3155      C3156   1.391       .  A
C3155      F3162   1.357       .  S
C3156      C3157   1.404       .  A
C3156      H3161   1.083       .  S
C3157      C3158   1.402       .  A
C3158      F3159   1.358       .  S
C3163      C3164   1.401       .  A
C3163      C3168   1.407       .  A
C3163      H3170   1.083       .  S
C3164      C3165   1.403       .  A
C3165      C3166   1.395       .  A
C3165      F3172   1.358       .  S
C3166      C3167   1.409       .  A
C3166      H3171   1.075       .  S
C3167      C3168   1.420       .  A
C3168      F3169   1.357       .  S
C3173      C3174   1.412       .  A
C3173      C3178   1.414       .  A
C3173      H3180   1.083       .  S
C3174      C3175   1.415       .  A
C3175      C3176   1.415       .  A
C3175      F3182   1.357       .  S
C3176      C3177   1.408       .  A
C3176      H3181   1.083       .  S
C3177      C3178   1.408       .  A
C3178      F3179   1.356       .  S
C3183      C3184   1.410       .  A
C3183      C3188   1.393       .  A
C3183      H3190   1.083       .  S
C3184      C3185   1.406       .  A
C3185      C3186   1.394       .  A
C3185      F3192   1.355       .  S
C3186      C3187   1.401       .  A
C3186      H3191   1.084       .  S
C3187      C3188   1.395       .  A
C3188      F3189   1.358       .  S
C3193      C3194   1.402       .  A
C3193      C3198   1.395       .  A
C3193      H3200   1.083       .  S
C3194      C3195   1.407       .  A
C3195      C3196   1.400       .  A
C3195      F3202   1.358       .  S
C3196      C3197   1.403       .  A
C3196      H3201   1.083       .  S
C3197      C3198   1.403       .  A
C3198      F3199   1.357       .  S
C3203      C3204   1.398       .  A
C3203      C3208   1.384       .  A
C3203      H3210   1.083       .  S
C3204      C3205   1.404       .  A
C3205      C3206   1.401       .  A
C3205      F3212   1.356       .  S
C3206      C3207   1.402       .  A
C3206      H3211   1.083       .  S
C3207      C3208   1.402       .  A
C3208      F3209   1.359       .  S
C3213      C3214   1.416       .  A
C3213      C3218   1.412       .  A
C3213      H3220   1.075       .  S
C3214      C3215   1.418       .  A
C3215      C3216   1.422       .  A
C3215      F3222   1.354       .  S
C3216      C3217   1.419       .  A
C3216      H3221   1.083       .  S
C3217      C3218   1.415       .  A
C3218      F3219   1.349       .  S
C3223      C3224   1.417       .  A
C3223      C3228   1.417       .  A
C3223      H3230   1.077       .  S
C3224      C3225   1.423       .  A
C3225      C3226   1.434       .  A
C3225      F3232   1.355       .  S
C3226      C3227   1.422       .  A
C3226      H3231   1.082       .  S
C3227      C3228   1.418       .  A
C3228      F3229   1.353       .  S
C3233      C3234   1.399       .  A
C3233      C3238   1.392       .  A
C3233      H3240   1.084       .  S
C3234      C3235   1.400       .  A
C3235      C3236   1.388       .  A
C3235      F3242   1.358       .  S
C3236      C3237   1.400       .  A
C3236      H3241   1.084       .  S
C3237      C3238   1.402       .  A
C3238      F3239   1.358       .  S
C3243      C3244   1.417       .  A
C3243      C3248   1.400       .  A
C3243      H3250   1.078       .  S
C3244      C3245   1.419       .  A
C3245      C3246   1.410       .  A
C3245      F3252   1.355       .  S
C3246      C3247   1.404       .  A
C3246      H3251   1.083       .  S
C3247      C3248   1.399       .  A
C3248      F3249   1.357       .  S
C3253      C3254   1.396       .  A
C3253      C3258   1.391       .  A
C3253      H3260   1.083       .  S
C3254      C3255   1.398       .  A
C3255      C3256   1.380       .  A
C3255      F3262   1.358       .  S
C3256      C3257   1.400       .  A
C3256      H3261   1.081       .  S
C3257      C3258   1.403       .  A
C3258      F3259   1.358       .  S
C3263      C3264   1.425       .  A
C3263      C3268   1.438       .  A
C3263      H3270   1.076       .  S
C3264      C3265   1.431       .  A
C3265      C3266   1.445       .  A
C3265      F3272   1.356       .  S
C3266      C3267   1.421       .  A
C3266      H3271   1.082       .  S
C3267      C3268   1.425       .  A
C3268      F3269   1.356       .  S
C3273      C3274   1.410       .  A
C3273      C3278   1.398       .  A
C3273      H3280   1.083       .  S
C3274      C3275   1.410       .  A
C3275      C3276   1.414       .  A
C3275      F3282   1.357       .  S
C3276      C3277   1.410       .  A
C3276      H3281   1.082       .  S
C3277      C3278   1.402       .  A
C3278      F3279   1.356       .  S
C3283      C3284   1.401       .  A
C3283      C3288   1.387       .  A
C3283      H3290   1.083       .  S
C3284      C3285   1.398       .  A
C3285      C3286   1.390       .  A
C3285      F3292   1.357       .  S
C3286      C3287   1.401       .  A
C3286      H3291   1.084       .  S
C3287      C3288   1.398       .  A
C3288      F3289   1.358       .  S
C3293      C3294   1.424       .  A
C3293      C3298   1.434       .  A
C3293      H3300   1.080       .  S
C3294      C3295   1.429       .  A
C3295      C3296   1.430       .  A
C3295      F3302   1.355       .  S
C3296      C3297   1.412       .  A
C3296      H3301   1.083       .  S
C3297      C3298   1.419       .  A
C3298      F3299   1.356       .  S
C3303      C3304   1.412       .  A
C3303      C3308   1.420       .  A
C3303      H3310   1.083       .  S
C3304      C3305   1.412       .  A
C3305      C3306   1.413       .  A
C3305      F3312   1.357       .  S
C3306      C3307   1.410       .  A
C3306      H3311   1.083       .  S
C3307      C3308   1.410       .  A
C3308      F3309   1.356       .  S
C3313      C3314   1.398       .  A
C3313      C3318   1.392       .  A
C3313      H3320   1.084       .  S
C3314      C3315   1.404       .  A
C3315      C3316   1.395       .  A
C3315      F3322   1.358       .  S
C3316      C3317   1.400       .  A
C3316      H3321   1.083       .  S
C3317      C3318   1.405       .  A
C3318      F3319   1.358       .  S
C3323      C3324   1.400       .  A
C3323      C3328   1.386       .  A
C3323      H3330   1.084       .  S
C3324      C3325   1.404       .  A
C3325      C3326   1.397       .  A
C3325      F3332   1.358       .  S
C3326      C3327   1.403       .  A
C3326      H3331   1.083       .  S
C3327      C3328   1.402       .  A
C3328      F3329   1.354       .  S
C3333      C3334   1.394       .  A
C3333      C3338   1.390       .  A
C3333      H3340   1.083       .  S
C3334      C3335   1.411       .  A
C3335      C3336   1.389       .  A
C3335      F3342   1.355       .  S
C3336      C3337   1.394       .  A
C3336      H3341   1.084       .  S
C3337      C3338   1.409       .  A
C3338      F3339   1.358       .  S
C3343      C3344   1.403       .  A
C3343      C3348   1.392       .  A
C3343      H3350   1.082       .  S
C3344      C3345   1.399       .  A
C3345      C3346   1.398       .  A
C3345      F3352   1.358       .  S
C3346      C3347   1.411       .  A
C3346      H3351   1.082       .  S
C3347      C3348   1.401       .  A
C3348      F3349   1.356       .  S
C3353      C3354   1.404       .  A
C3353      C3358   1.401       .  A
C3353      H3360   1.083       .  S
C3354      C3355   1.405       .  A
C3355      C3356   1.390       .  A
C3355      F3362   1.353       .  S
C3356      C3357   1.407       .  A
C3356      H3361   1.080       .  S
C3357      C3358   1.410       .  A
C3358      F3359   1.355       .  S
C3363      C3364   1.403       .  A
C3363      C3368   1.385       .  A
C3363      H3370   1.078       .  S
C3364      C3365   1.394       .  A
C3365      C3366   1.388       .  A
C3365      F3372   1.357       .  S
C3366      C3367   1.409       .  A
C3366      H3371   1.083       .  S
C3367      C3368   1.402       .  A
C3368      F3369   1.358       .  S
C3373      C3374   1.412       .  A
C3373      C3378   1.405       .  A
C3373      H3380   1.081       .  S
C3374      C3375   1.417       .  A
C3375      C3376   1.409       .  A
C3375      F3382   1.356       .  S
C3376      C3377   1.404       .  A
C3376      H3381   1.083       .  S
C3377      C3378   1.404       .  A
C3378      F3379   1.357   1_565  S
C3383      C3384   1.404       .  A
C3383      C3388   1.397       .  A
C3383      H3390   1.083       .  S
C3384      C3385   1.401       .  A
C3385      C3386   1.393       .  A
C3385      F3392   1.358       .  S
C3386      C3387   1.404       .  A
C3386      H3391   1.083       .  S
C3387      C3388   1.400       .  A
C3388      F3389   1.357       .  S
C3393      C3394   1.415       .  A
C3393      C3398   1.412       .  A
C3393      H3400   1.078       .  S
C3394      C3395   1.421       .  A
C3395      C3396   1.397       .  A
C3395      F3402   1.356       .  S
C3396      C3397   1.398       .  A
C3396      H3401   1.084       .  S
C3397      C3398   1.405       .  A
C3398      F3399   1.357       .  S
C3403      C3404   1.409       .  A
C3403      C3408   1.405       .  A
C3403      H3410   1.083       .  S
C3404      C3405   1.408       .  A
C3405      C3406   1.408       .  A
C3405      F3412   1.357       .  S
C3406      C3407   1.408       .  A
C3406      H3411   1.082       .  S
C3407      C3408   1.403       .  A
C3408      F3409   1.356       .  S
C3413      C3414   1.401       .  A
C3413      C3418   1.402       .  A
C3413      H3420   1.083       .  S
C3414      C3415   1.403       .  A
C3415      C3416   1.392       .  A
C3415      F3422   1.357       .  S
C3416      C3417   1.404       .  A
C3416      H3421   1.083       .  S
C3417      C3418   1.409       .  A
C3418      F3419   1.357       .  S
C3423      C3424   1.420       .  A
C3423      C3428   1.430       .  A
C3423      H3430   1.081       .  S
C3424      C3425   1.427       .  A
C3425      C3426   1.418       .  A
C3425      F3432   1.355       .  S
C3426      C3427   1.407       .  A
C3426      H3431   1.083       .  S
C3427      C3428   1.417       .  A
C3428      F3429   1.356       .  S
C3433      C3434   1.403       .  A
C3433      C3438   1.403       .  A
C3433      H3440   1.083       .  S
C3434      C3435   1.412       .  A
C3435      C3436   1.398       .  A
C3435      F3442   1.357       .  S
C3436      C3437   1.398       .  A
C3436      H3441   1.083       .  S
C3437      C3438   1.411       .  A
C3438      F3439   1.355       .  S
C3443      C3444   1.419       .  A
C3443      C3448   1.423       .  A
C3443      H3450   1.081       .  S
C3444      C3445   1.419       .  A
C3445      C3446   1.415       .  A
C3445      F3452   1.356       .  S
C3446      C3447   1.409       .  A
C3446      H3451   1.083       .  S
C3447      C3448   1.411       .  A
C3448      F3449   1.357       .  S
C3453      C3454   1.410       .  A
C3453      C3458   1.391       .  A
C3453      H3460   1.081       .  S
C3454      C3455   1.405       .  A
C3455      C3456   1.389       .  A
C3455      F3462   1.356       .  S
C3456      C3457   1.400       .  A
C3456      H3461   1.084       .  S
C3457      C3458   1.395       .  A
C3458      F3459   1.358       .  S
C3463      C3464   1.407       .  A
C3463      C3468   1.400       .  A
C3463      H3470   1.083       .  S
C3464      C3465   1.406       .  A
C3465      C3466   1.394       .  A
C3465      F3472   1.358       .  S
C3466      C3467   1.402       .  A
C3466      H3471   1.083       .  S
C3467      C3468   1.401       .  A
C3468      F3469   1.356       .  S
C3473      C3474   1.400       .  A
C3473      C3478   1.399       .  A
C3473      H3480   1.083       .  S
C3474      C3475   1.405       .  A
C3475      C3476   1.400       .  A
C3475      F3482   1.356       .  S
C3476      C3477   1.406       .  A
C3476      H3481   1.083       .  S
C3477      C3478   1.414       .  A
C3478      F3479   1.358       .  S
C3483      C3484   1.415       .  A
C3483      C3488   1.412       .  A
C3483      H3490   1.075       .  S
C3484      C3485   1.423       .  A
C3485      C3486   1.420       .  A
C3485      F3492   1.353       .  S
C3486      C3487   1.412       .  A
C3486      H3491   1.081       .  S
C3487      C3488   1.414       .  A
C3488      F3489   1.357       .  S
C3493      C3494   1.407       .  A
C3493      C3498   1.408       .  A
C3493      H3500   1.083       .  S
C3494      C3495   1.409       .  A
C3495      C3496   1.412       .  A
C3495      F3502   1.357       .  S
C3496      C3497   1.407       .  A
C3496      H3501   1.083       .  S
C3497      C3498   1.408       .  A
C3498      F3499   1.357       .  S
C3503      C3504   1.400       .  A
C3503      C3508   1.389       .  A
C3503      H3510   1.084       .  S
C3504      C3505   1.404       .  A
C3505      C3506   1.400       .  A
C3505      F3512   1.357       .  S
C3506      C3507   1.402       .  A
C3506      H3511   1.082       .  S
C3507      C3508   1.401       .  A
C3508      F3509   1.358       .  S
C3513      C3514   1.398       .  A
C3513      C3518   1.396       .  A
C3513      H3520   1.083       .  S
C3514      C3515   1.406       .  A
C3515      C3516   1.407       .  A
C3515      F3522   1.357       .  S
C3516      C3517   1.407       .  A
C3516      H3521   1.083       .  S
C3517      C3518   1.411       .  A
C3518      F3519   1.358       .  S
C3523      C3524   1.397       .  A
C3523      C3528   1.388       .  A
C3523      H3530   1.082       .  S
C3524      C3525   1.393       .  A
C3525      C3526   1.381       .  A
C3525      F3532   1.357       .  S
C3526      C3527   1.402       .  A
C3526      H3531   1.084       .  S
C3527      C3528   1.402       .  A
C3528      F3529   1.358       .  S
C3533      C3534   1.401       .  A
C3533      C3538   1.400       .  A
C3533      H3540   1.084       .  S
C3534      C3535   1.405       .  A
C3535      C3536   1.404       .  A
C3535      F3542   1.357       .  S
C3536      C3537   1.408       .  A
C3536      H3541   1.082       .  S
C3537      C3538   1.413       .  A
C3538      F3539   1.356       .  S
C3543      C3544   1.407       .  A
C3543      C3548   1.417       .  A
C3543      H3550   1.083       .  S
C3544      C3545   1.409       .  A
C3545      C3546   1.416       .  A
C3545      F3552   1.357       .  S
C3546      C3547   1.418       .  A
C3546      H3551   1.077       .  S
C3547      C3548   1.420       .  A
C3548      F3549   1.356       .  S
C3553      C3554   1.396       .  A
C3553      C3558   1.380       .  A
C3553      H3560   1.080       .  S
C3554      C3555   1.402       .  A
C3555      C3556   1.389       .  A
C3555      F3562   1.357       .  S
C3556      C3557   1.402       .  A
C3556      H3561   1.083       .  S
C3557      C3558   1.408       .  A
C3558      F3559   1.358       .  S
C3563      C3564   1.399       .  A
C3563      C3568   1.392       .  A
C3563      H3570   1.083       .  S
C3564      C3565   1.404       .  A
C3565      C3566   1.397       .  A
C3565      F3572   1.357       .  S
C3566      C3567   1.403       .  A
C3566      H3571   1.077       .  S
C3567      C3568   1.403       .  A
C3568      F3569   1.357       .  S
C3573      C3574   1.413       .  A
C3573      C3578   1.411       .  A
C3573      H3580   1.081       .  S
C3574      C3575   1.417       .  A
C3575      C3576   1.401       .  A
C3575      F3582   1.357       .  S
C3576      C3577   1.401       .  A
C3576      H3581   1.083       .  S
C3577      C3578   1.407       .  A
C3578      F3579   1.357       .  S
C3583      C3584   1.394       .  A
C3583      C3588   1.388       .  A
C3583      H3590   1.084       .  S
C3584      C3585   1.398       .  A
C3585      C3586   1.390       .  A
C3585      F3592   1.358       .  S
C3586      C3587   1.405       .  A
C3586      H3591   1.082       .  S
C3587      C3588   1.414       .  A
C3588      F3589   1.356       .  S
C3593      C3594   1.394       .  A
C3593      C3598   1.392       .  A
C3593      H3600   1.084       .  S
C3594      C3595   1.405       .  A
C3595      C3596   1.402       .  A
C3595      F3602   1.357       .  S
C3596      C3597   1.407       .  A
C3596      H3601   1.083       .  S
C3597      C3598   1.418       .  A
C3598      F3599   1.358       .  S
C3603      C3604   1.409       .  A
C3603      C3608   1.391       .  A
C3603      H3610   1.083       .  S
C3604      C3605   1.404       .  A
C3605      C3606   1.386       .  A
C3605      F3612   1.358       .  S
C3606      C3607   1.400       .  A
C3606      H3611   1.083       .  S
C3607      C3608   1.396       .  A
C3608      F3609   1.357       .  S
C3613      C3614   1.408       .  A
C3613      C3618   1.395       .  A
C3613      H3620   1.082       .  S
C3614      C3615   1.418       .  A
C3615      C3616   1.400       .  A
C3615      F3622   1.355       .  S
C3616      C3617   1.399       .  A
C3616      H3621   1.083       .  S
C3617      C3618   1.401       .  A
C3618      F3619   1.358       .  S
C3623      C3624   1.400       .  A
C3623      C3628   1.404       .  A
C3623      H3630   1.083       .  S
C3624      C3625   1.397       .  A
C3625      C3626   1.395       .  A
C3625      F3632   1.358       .  S
C3626      C3627   1.412       .  A
C3626      H3631   1.072       .  S
C3627      C3628   1.415       .  A
C3628      F3629   1.357   1_545  S
C3633      C3634   1.400       .  A
C3633      C3638   1.394       .  A
C3633      H3640   1.084       .  S
C3634      C3635   1.403       .  A
C3635      C3636   1.392       .  A
C3635      F3642   1.355       .  S
C3636      C3637   1.405       .  A
C3636      H3641   1.083       .  S
C3637      C3638   1.408       .  A
C3638      F3639   1.357       .  S
C3643      C3644   1.405       .  A
C3643      C3648   1.403       .  A
C3643      H3650   1.083       .  S
C3644      C3645   1.405       .  A
C3645      C3646   1.401       .  A
C3645      F3652   1.356       .  S
C3646      C3647   1.404       .  A
C3646      H3651   1.083       .  S
C3647      C3648   1.405       .  A
C3648      F3649   1.357       .  S
C3653      C3654   1.404       .  A
C3653      C3658   1.383       .  A
C3653      H3660   1.084       .  S
C3654      C3655   1.394       .  A
C3655      C3656   1.383       .  A
C3655      F3662   1.358       .  S
C3656      C3657   1.402       .  A
C3656      H3661   1.084       .  S
C3657      C3658   1.391       .  A
C3658      F3659   1.357       .  S
C3663      C3664   1.406       .  A
C3663      C3668   1.402       .  A
C3663      H3670   1.083       .  S
C3664      C3665   1.405       .  A
C3665      C3666   1.395       .  A
C3665      F3672   1.357       .  S
C3666      C3667   1.401       .  A
C3666      H3671   1.083       .  S
C3667      C3668   1.402       .  A
C3668      F3669   1.356       .  S
C3673      C3674   1.410       .  A
C3673      C3678   1.408       .  A
C3673      H3680   1.078       .  S
C3674      C3675   1.418       .  A
C3675      C3676   1.410       .  A
C3675      F3682   1.353       .  S
C3676      C3677   1.407       .  A
C3676      H3681   1.080       .  S
C3677      C3678   1.416       .  A
C3678      F3679   1.357       .  S
C3683      C3684   1.394       .  A
C3683      C3688   1.372       .  A
C3683      H3690   1.084       .  S
C3684      C3685   1.403       .  A
C3685      C3686   1.395       .  A
C3685      F3692   1.357       .  S
C3686      C3687   1.399       .  A
C3686      H3691   1.083       .  S
C3687      C3688   1.398       .  A
C3688      F3689   1.358       .  S
