geometry optimzed in LAMMPS
_audit_creation_date              2020-12-01 
_audit_creation_method            'lammps2cif' 
_symmetry_space_group_name_H-M    'P1' 
_symmetry_Int_Tables_number       1 
_symmetry_cell_setting            triclinic 
loop_ 
_symmetry_equiv_pos_as_xyz 
  x,y,z 
_cell_length_a                    47.42203678 
_cell_length_b                    47.48597445368117 
_cell_length_c                    47.383989269624735 
_cell_angle_alpha                 90.07441835173377 
_cell_angle_beta                  90.02497763623379 
_cell_angle_gamma                 90.12490344516917 
loop_ 
_atom_site_label 
_atom_site_type_symbol 
_atom_site_fract_x 
_atom_site_fract_y 
_atom_site_fract_z 
_atom_site_charge 
C1          C  0.57693510  0.88855120  0.69363547     0.04000
C2          C  0.55118129  0.87520676  0.68824681    -0.12200
C3          C  0.52704972  0.89037525  0.68115816     0.01500
C4          C  0.52871308  0.91980641  0.67982077    -0.10700
C5          C  0.55402642  0.93436637  0.68645532     0.04000
C6          C  0.57849270  0.91824361  0.69258475    -0.10100
H7          H  0.55006246  0.85249395  0.68962838     0.09600
H8          H  0.51015735  0.93129263  0.67331162     0.07100
H9          H  0.59822787  0.92854297  0.69767853     0.06900
C10         C  0.57607962  0.01253965  0.68259767     0.04000
C11         C  0.57786858  0.98284193  0.68209927    -0.12200
C12         C  0.55375036  0.96610487  0.68808757     0.01500
C13         C  0.52844167  0.97998788  0.69568726    -0.10700
C14         C  0.52651672  0.00942801  0.69613458     0.04000
C15         C  0.55038273  0.02535391  0.68946944    -0.10100
H16         H  0.59757891  0.97304208  0.67616158     0.09600
H17         H  0.51013241  0.96794875  0.70201468     0.07100
H18         H  0.54905112  0.04811131  0.68947050     0.06900
C19         C  0.93452168  0.69514760  0.51992029     0.04000
C20         C  0.92134765  0.69031102  0.49400053    -0.12200
C21         C  0.93696210  0.68517273  0.46954017     0.01500
C22         C  0.96653994  0.68509844  0.47128747    -0.10700
C23         C  0.98074046  0.69105161  0.49704433     0.04000
C24         C  0.96416258  0.69554322  0.52154802    -0.10100
H25         H  0.89853736  0.69088377  0.49301020     0.09600
H26         H  0.97831567  0.67994664  0.45246478     0.07100
H27         H  0.97396569  0.70045271  0.54157614     0.06900
C28         C  0.05815927  0.68975338  0.52197702     0.04000
C29         C  0.07194279  0.69574800  0.49666932    -0.12200
C30         C  0.05696851  0.70118088  0.47191322     0.01500
C31         C  0.02736558  0.70057369  0.47275361    -0.10700
C32         C  0.01253330  0.69331782  0.49767966     0.04000
C33         C  0.02846100  0.68834753  0.52258816    -0.10100
H34         H  0.09475508  0.69597389  0.49649931     0.09600
H35         H  0.01594352  0.70632708  0.45392385     0.07100
H36         H  0.01815852  0.68265473  0.54212882     0.06900
C37         C  0.55662575  0.69299511  0.35504294     0.04000
C38         C  0.52717660  0.69632512  0.35366773    -0.12200
C39         C  0.51147778  0.70247454  0.37832457     0.01500
C40         C  0.52647080  0.70626513  0.40403219    -0.10700
C41         C  0.55578784  0.70201541  0.40581361     0.04000
C42         C  0.57046602  0.69525229  0.38104333    -0.10100
H43         H  0.51669081  0.69319712  0.33362596     0.09600
H44         H  0.51543584  0.71282284  0.42284516     0.07100
H45         H  0.59291159  0.69136824  0.38162587     0.06900
C46         C  0.43449019  0.71429860  0.35463056     0.04000
C47         C  0.42047336  0.70995128  0.38021585    -0.12200
C48         C  0.43508604  0.70200402  0.40454486     0.01500
C49         C  0.46439925  0.69834203  0.40297449    -0.10700
C50         C  0.47964697  0.70417780  0.37798004     0.04000
C51         C  0.46412042  0.71173933  0.35347815    -0.10100
H52         H  0.39792147  0.71326043  0.38097774     0.09600
H53         H  0.47524002  0.69067448  0.42147078     0.07100
H54         H  0.47480921  0.71648167  0.33388711     0.06900
C55         C  0.74368329  0.53203168  0.87385727     0.04000
C56         C  0.74608712  0.53353700  0.90345719    -0.12200
C57         C  0.74147603  0.50924571  0.92019921     0.01500
C58         C  0.73350978  0.48398934  0.90655611    -0.10700
C59         C  0.73168978  0.48226617  0.87711669     0.04000
C60         C  0.73664008  0.50641918  0.86102131    -0.10100
H61         H  0.75249783  0.55320576  0.91310789     0.09600
H62         H  0.72846435  0.46545493  0.91881213     0.07100
H63         H  0.73561765  0.50530671  0.83820457     0.06900
C64         C  0.74156413  0.53259721  0.99762173     0.04000
C65         C  0.73975380  0.53371804  0.96803290    -0.12200
C66         C  0.74539229  0.50940717  0.95165678     0.01500
C67         C  0.75397059  0.48447051  0.96571883    -0.10700
C68         C  0.75559571  0.48328092  0.99526119     0.04000
C69         C  0.74928702  0.50747718  0.01079470    -0.10100
H70         H  0.73289460  0.55303756  0.95809724     0.09600
H71         H  0.75971428  0.46593537  0.95376445     0.07100
H72         H  0.74992252  0.50689336  0.03361622     0.06900
O73         O  0.65729048  0.29567688  0.71332979    -0.77700
C74         C  0.71754517  0.30995282  0.77844772     0.83400
O75         O  0.72871754  0.24163786  0.67488725    -0.78800
O76         O  0.75236646  0.22471682  0.77832787    -0.80300
O77         O  0.64598322  0.22226952  0.78035995    -0.80100
O78         O  0.63059598  0.25811012  0.72238734    -0.78700
Zn79       Zn  0.69729267  0.28370366  0.72296534     1.55700
O80         O  0.68506596  0.22754999  0.80609269    -0.80100
Cd81       Cd  0.65895283  0.22969081  0.73907621     1.59700
Cd82       Cd  0.72192138  0.22161230  0.71354483     1.59600
O83         O  0.65736803  0.19159810  0.71724719    -0.80100
O84         O  0.69786616  0.24568996  0.73829977    -1.90600
Cd85       Cd  0.71358759  0.24532076  0.77759335     1.59900
O86         O  0.70235648  0.18293471  0.70617660    -0.80000
O87         O  0.72006877  0.28646653  0.79121113    -0.78700
C88         C  0.72906692  0.26789356  0.66920259     0.83900
C89         C  0.63330391  0.28354694  0.71429428     0.83500
O90         O  0.71034911  0.31142287  0.75256366    -0.77600
C91         C  0.65892292  0.22135841  0.80393594     0.84300
O92         O  0.72046167  0.28634777  0.68681577    -0.77700
C93         C  0.67650787  0.17551676  0.70732973     0.84400
C94         C  0.76852000  0.21569282  0.75876121     0.84800
O95         O  0.76081098  0.21465525  0.73296082    -0.80200
O96         O  0.27120236  0.78641289  0.58685958    -0.77700
C97         C  0.33217124  0.72204989  0.57324870     0.83400
O98         O  0.23233774  0.71206815  0.64344599    -0.78800
O99         O  0.33652652  0.69272208  0.65966469    -0.80300
O100        O  0.33451232  0.79775357  0.66176644    -0.80100
O101        O  0.27671989  0.81253340  0.62558632    -0.78700
Zn102      Zn  0.27848418  0.74591515  0.59976508     1.55700
O103        O  0.36123210  0.76016081  0.65272203    -0.80100
Cd104      Cd  0.29347588  0.78422132  0.65441094     1.59700
Cd105      Cd  0.27078592  0.72029876  0.66342135     1.59600
O106        O  0.27178655  0.78565182  0.69278203    -0.80100
O107        O  0.29371532  0.74526735  0.63819398    -1.90600
Cd108      Cd  0.33313142  0.73048963  0.63760171     1.59900
O109        O  0.26297350  0.74039457  0.70231770    -0.80000
O110        O  0.34551367  0.72248800  0.59656390    -0.78700
C111        C  0.22483415  0.71436845  0.61765704     0.83900
C112        C  0.27058673  0.81017676  0.59946241     0.83500
O113        O  0.30618657  0.72883896  0.57162333    -0.77600
C114        C  0.35851118  0.78580104  0.66019043     0.84300
O115        O  0.24089669  0.72514145  0.59891077    -0.77700
C116        C  0.26302045  0.76638798  0.70942092     0.84400
C117        C  0.31810566  0.67569408  0.66942392     0.84800
O118        O  0.29195083  0.68206513  0.67064896    -0.80200
C119        C  0.08391205  0.50933248  0.18030223     0.04000
C120        C  0.08423055  0.47977075  0.18264038    -0.12200
C121        C  0.05876089  0.46442371  0.18611529     0.01500
C122        C  0.03335287  0.48009398  0.18852012    -0.10700
C123        C  0.03269531  0.50954452  0.18507949     0.04000
C124        C  0.05820291  0.52373731  0.18068825    -0.10100
H125        H  0.10429012  0.46912678  0.18119225     0.09600
H126        H  0.01386788  0.46962706  0.19375385     0.07100
H127        H  0.05846784  0.54635026  0.17806021     0.06900
C128        C  0.08072829  0.38632972  0.19468295     0.04000
C129        C  0.05473096  0.37313974  0.19034027    -0.12200
C130        C  0.03051165  0.38849512  0.18398609     0.01500
C131        C  0.03246015  0.41786732  0.18173560    -0.10700
C132        C  0.05810248  0.43244491  0.18712378     0.04000
C133        C  0.08247186  0.41600135  0.19325255    -0.10100
H134        H  0.05345528  0.35044172  0.19199610     0.09600
H135        H  0.01381990  0.42899393  0.17502188     0.07100
H136        H  0.10254543  0.42586019  0.19767452     0.06900
O137        O  0.84000729  0.60013104  0.20562982    -0.77700
C138        C  0.78190252  0.57817567  0.26922413     0.83400
O139        O  0.76291518  0.65344727  0.17191621    -0.78800
O140        O  0.74026025  0.65641273  0.27396010    -0.80300
O141        O  0.84717504  0.67128846  0.27505708    -0.80100
O142        O  0.86498191  0.63874783  0.21523528    -0.78700
Zn143      Zn  0.79919715  0.60911515  0.21541076     1.55700
O144        O  0.80887357  0.66118967  0.30059759    -0.80100
Cd145      Cd  0.83474833  0.66480426  0.23343441     1.59700
Cd146      Cd  0.77028630  0.67218777  0.21116279     1.59600
O147        O  0.83417005  0.70391730  0.21361407    -0.80100
O148        O  0.79657164  0.64668856  0.23241899    -1.90600
Cd149      Cd  0.78175715  0.64284814  0.27144815     1.59900
O150        O  0.78852779  0.71207471  0.20517825    -0.80000
O151        O  0.78010104  0.60122522  0.28274343    -0.78700
C152        C  0.76568574  0.62803314  0.16345084     0.83900
C153        C  0.86341696  0.61337278  0.20647329     0.83500
O154        O  0.78712591  0.57763039  0.24277392    -0.77600
C155        C  0.83448234  0.66933489  0.29871487     0.84300
O156        O  0.77697886  0.60891674  0.17865775    -0.77700
C157        C  0.81426155  0.72009796  0.20560069     0.84400
C158        C  0.72350032  0.66851261  0.25678734     0.84800
O159        O  0.73147929  0.67654612  0.23231684    -0.80200
C160        C  0.93218718  0.19060948  0.85867638     0.04000
C161        C  0.91868280  0.19419659  0.88464651    -0.12200
C162        C  0.93384678  0.20043531  0.90913535     0.01500
C163        C  0.96339391  0.20230996  0.90757920    -0.10700
C164        C  0.97808596  0.19737411  0.88195407     0.04000
C165        C  0.96185242  0.19215866  0.85726589    -0.10100
H166        H  0.89595349  0.19233302  0.88553599     0.09600
H167        H  0.97473532  0.20835061  0.92641497     0.07100
H168        H  0.97196437  0.18841697  0.83716877     0.06900
C169        C  0.05534007  0.20437633  0.85726756     0.04000
C170        C  0.06952215  0.19980635  0.88272981    -0.12200
C171        C  0.05497249  0.19361747  0.90760133     0.01500
C172        C  0.02536992  0.19201461  0.90672926    -0.10700
C173        C  0.01003743  0.19756991  0.88158081     0.04000
C174        C  0.02563336  0.20335721  0.85664155    -0.10100
H175        H  0.09230144  0.20121208  0.88297846     0.09600
H176        H  0.01445909  0.18576642  0.92571630     0.07100
H177        H  0.01500950  0.20787492  0.83697429     0.06900
O178        O  0.77572298  0.29410755  0.09198939    -0.77700
C179        C  0.82986536  0.22764173  0.07742464     0.83400
O180        O  0.72844834  0.22082114  0.14499738    -0.78800
O181        O  0.83251006  0.19563130  0.16271787    -0.80300
O182        O  0.83510837  0.30127922  0.16812645    -0.80100
O183        O  0.77989215  0.32021871  0.13071405    -0.78700
Zn184      Zn  0.77869192  0.25397559  0.10461071     1.55700
O185        O  0.86047815  0.26299751  0.15797237    -0.80100
Cd186      Cd  0.79374219  0.28982924  0.15932654     1.59700
Cd187      Cd  0.76756458  0.22575408  0.16555539     1.59600
O188        O  0.77124106  0.29056432  0.19702961    -0.80100
O189        O  0.79276115  0.25098560  0.14268445    -1.90600
Cd190      Cd  0.83136035  0.23441783  0.14204690     1.59900
O191        O  0.76061192  0.24519366  0.20472984    -0.80000
O192        O  0.84331743  0.22680510  0.10068863    -0.78700
C193        C  0.72147549  0.22876381  0.12020135     0.83900
C194        C  0.77557314  0.31791505  0.10423637     0.83500
O195        O  0.80417853  0.23537237  0.07614719    -0.77600
C196        C  0.85866542  0.28852275  0.16623982     0.84300
O197        O  0.73912377  0.24004736  0.10341975    -0.77700
C198        C  0.76175930  0.27090073  0.21278281     0.84400
C199        C  0.81295604  0.17902696  0.17092809     0.84800
O200        O  0.78707961  0.18652695  0.17171605    -0.80200
C201        C  0.43419552  0.18711675  0.02496843     0.04000
C202        C  0.41925924  0.19286042  0.00027547    -0.12200
C203        C  0.43309728  0.19948589  0.97507791     0.01500
C204        C  0.46273084  0.20118035  0.97526259    -0.10700
C205        C  0.47856882  0.19479184  0.99979929     0.04000
C206        C  0.46378266  0.18767150  0.02477440    -0.10100
H207        H  0.39652982  0.19122962  0.00091053     0.09600
H208        H  0.47342201  0.20785185  0.95630514     0.07100
H209        H  0.47498769  0.18186869  0.04378613     0.06900
C210        C  0.55531254  0.20627882  0.02198582     0.04000
C211        C  0.52598312  0.20285342  0.02348726    -0.12200
C212        C  0.51027506  0.19589720  0.99906147     0.01500
C213        C  0.52507113  0.19133713  0.97344328    -0.10700
C214        C  0.55445006  0.19536473  0.97164154     0.04000
C215        C  0.56915161  0.20296242  0.99614880    -0.10100
H216        H  0.51553786  0.20700796  0.04335122     0.09600
H217        H  0.51379414  0.18466390  0.95476791     0.07100
H218        H  0.59158931  0.20697078  0.99537884     0.06900
C219        C  0.23268502  0.86552311  0.87408401     0.04000
C220        C  0.23761564  0.89174009  0.86136817    -0.12200
C221        C  0.24137802  0.91632394  0.87728732     0.01500
C222        C  0.24083407  0.91416481  0.90682658    -0.10700
C223        C  0.23490229  0.88841227  0.92064376     0.04000
C224        C  0.23140030  0.86381111  0.90385416    -0.10100
H225        H  0.23816548  0.89266852  0.83862730     0.09600
H226        H  0.24520818  0.93275771  0.91920671     0.07100
H227        H  0.22661867  0.84378283  0.91364189     0.06900
C228        C  0.23891525  0.86659631  0.99882741     0.04000
C229        C  0.23958201  0.86481157  0.96908339    -0.12200
C230        C  0.23183162  0.88833355  0.95237708     0.01500
C231        C  0.22215614  0.91295226  0.96639201    -0.10700
C232        C  0.22170645  0.91483450  0.99595728     0.04000
C233        C  0.23015136  0.89157536  0.01176834    -0.10100
H234        H  0.24720898  0.84572080  0.95922626     0.09600
H235        H  0.21479302  0.93086306  0.95440662     0.07100
H236        H  0.23035784  0.89291559  0.03458373     0.06900
O237        O  0.33555894  0.10094036  0.72668081    -0.77700
C238        C  0.26751387  0.08911569  0.78052443     0.83400
O239        O  0.26172461  0.15234941  0.67657677    -0.78800
O240        O  0.23614057  0.17435648  0.77958581    -0.80300
O241        O  0.34095788  0.17950869  0.78379436    -0.80100
O242        O  0.36117731  0.13990381  0.73155719    -0.78700
Zn243      Zn  0.29497948  0.11390942  0.72776251     1.55700
O244        O  0.30242855  0.17195191  0.80968985    -0.80100
Cd245      Cd  0.33050511  0.16886601  0.74286496     1.59700
Cd246      Cd  0.26731419  0.17436091  0.71486621     1.59600
O247        O  0.33245384  0.20548337  0.71906986    -0.80100
O248        O  0.29179153  0.15228514  0.74141732    -1.90600
Cd249      Cd  0.27492958  0.15356735  0.78035486     1.59900
O250        O  0.28752702  0.21293932  0.70650390    -0.80000
O251        O  0.26730667  0.11248196  0.79387386    -0.78700
C252        C  0.26944001  0.12754748  0.66950640     0.83900
C253        C  0.35931212  0.11342008  0.72757090     0.83500
O254        O  0.27519947  0.08740768  0.75473895    -0.77600
C255        C  0.32811558  0.17972929  0.80738039     0.84300
O256        O  0.28140932  0.11105466  0.68705674    -0.77700
C257        C  0.31327213  0.22091149  0.70828778     0.84400
C258        C  0.22001621  0.18214534  0.75946149     0.84800
O259        O  0.22795172  0.18185987  0.73367667    -0.80200
C260        C  0.24307959  0.03207328  0.37725373     0.04000
C261        C  0.23181051  0.00870666  0.36336130    -0.12200
C262        C  0.22116350  0.98558284  0.37811012     0.01500
C263        C  0.22121141  0.98648024  0.40782778    -0.10700
C264        C  0.23318922  0.00952939  0.42280445     0.04000
C265        C  0.24379018  0.03260380  0.40694421    -0.10100
H266        H  0.23203559  0.00858420  0.34056392     0.09600
H267        H  0.21189069  0.96911274  0.41920491     0.07100
H268        H  0.25367791  0.05035879  0.41732209     0.06900
C269        C  0.24257032  0.03179905  0.50039836     0.04000
C270        C  0.23774840  0.03333921  0.47113055    -0.12200
C271        C  0.23613274  0.00845083  0.45457642     0.01500
C272        C  0.23870118  0.98212856  0.46853289    -0.10700
C273        C  0.24245351  0.98033349  0.49799051     0.04000
C274        C  0.24473220  0.00548104  0.51339692    -0.10100
H275        H  0.23592711  0.05386557  0.46143679     0.09600
H276        H  0.23851102  0.96288981  0.45641802     0.07100
H277        H  0.24898703  0.00509007  0.53578230     0.06900
O278        O  0.20765095  0.10245161  0.09466822    -0.77700
C279        C  0.15725003  0.17210992  0.07813083     0.83400
O280        O  0.25902418  0.17723183  0.14333126    -0.78800
O281        O  0.15759432  0.20481520  0.16430868    -0.80300
O282        O  0.15023385  0.10193536  0.17351398    -0.80100
O283        O  0.20111918  0.07776862  0.13393845    -0.78700
Zn284      Zn  0.20730390  0.14325307  0.10561994     1.55700
O285        O  0.12602388  0.13968402  0.15939677    -0.80100
Cd286      Cd  0.19164086  0.11004683  0.16217231     1.59700
Cd287      Cd  0.22135158  0.17259207  0.16613214     1.59600
O288        O  0.21729939  0.10794724  0.19777629    -0.80100
O289        O  0.19437234  0.14816075  0.14405299    -1.90600
Cd290      Cd  0.15655266  0.16647373  0.14299755     1.59900
O291        O  0.23152411  0.15246648  0.20437489    -0.80000
O292        O  0.14445655  0.17454290  0.10165583    -0.78700
C293        C  0.26538318  0.16795941  0.11883118     0.83900
C294        C  0.20559104  0.07902713  0.10744821     0.83500
O295        O  0.18226160  0.16242136  0.07665257    -0.77600
C296        C  0.12705793  0.11503050  0.17003730     0.84300
O297        O  0.24741512  0.15563532  0.10309539    -0.77700
C298        C  0.22986052  0.12679555  0.21238569     0.84400
C299        C  0.17747936  0.22039593  0.17371553     0.84800
O300        O  0.20313557  0.21215182  0.17442960    -0.80200
C301        C  0.90779121  0.88855934  0.18987022     0.04000
C302        C  0.93346255  0.87513503  0.19513956    -0.12200
C303        C  0.95794621  0.89045450  0.20061353     0.01500
C304        C  0.95658039  0.91989429  0.20164121    -0.10700
C305        C  0.93121956  0.93458764  0.19575232     0.04000
C306        C  0.90657983  0.91830610  0.19007933    -0.10100
H307        H  0.93443789  0.85235336  0.19426499     0.09600
H308        H  0.97556608  0.93100754  0.20757593     0.07100
H309        H  0.88680955  0.92837004  0.18495344     0.06900
C310        C  0.90754455  0.01226374  0.20041246     0.04000
C311        C  0.93356350  0.02592037  0.19825213    -0.12200
C312        C  0.95837088  0.01094301  0.19352507     0.01500
C313        C  0.95703261  0.98146264  0.19155598    -0.10700
C314        C  0.93129695  0.96653417  0.19539096     0.04000
C315        C  0.90631721  0.98259428  0.19916359    -0.10100
H316        H  0.93424929  0.04864863  0.19997432     0.09600
H317        H  0.97622794  0.97047537  0.18629891     0.07100
H318        H  0.88609890  0.97239396  0.20184742     0.06900
O319        O  0.14837703  0.79608942  0.20846174    -0.77700
C320        C  0.20319580  0.81771853  0.27265073     0.83400
O321        O  0.22626655  0.74520644  0.17317272    -0.78800
O322        O  0.24812738  0.74317518  0.27502124    -0.80300
O323        O  0.14337769  0.72363876  0.27781598    -0.80100
O324        O  0.12386455  0.75762932  0.21999018    -0.78700
Zn325      Zn  0.18926703  0.78748408  0.21773996     1.55700
O326        O  0.18257867  0.73173382  0.30248725    -0.80100
Cd327      Cd  0.15466661  0.73098905  0.23613820     1.59700
Cd328      Cd  0.21935283  0.72581207  0.21231543     1.59600
O329        O  0.15612216  0.69143257  0.21695559    -0.80100
O330        O  0.19223106  0.74983907  0.23416700    -1.90600
Cd331      Cd  0.20631962  0.75353283  0.27332394     1.59900
O332        O  0.20176492  0.68565322  0.20624217    -0.80000
O333        O  0.20427146  0.79462184  0.28610162    -0.78700
C334        C  0.22364741  0.77090249  0.16558659     0.83900
C335        C  0.12504218  0.78295556  0.21100409     0.83500
O336        O  0.20028644  0.81840949  0.24587501    -0.77600
C337        C  0.15693812  0.72389451  0.30104656     0.84300
O338        O  0.21208397  0.78939759  0.18138574    -0.77700
C339        C  0.17655164  0.67624125  0.20821784     0.84400
C340        C  0.26578493  0.73210100  0.25812625     0.84800
O341        O  0.25855487  0.72314945  0.23367033    -0.80200
C342        C  0.41327699  0.38562575  0.68579679     0.04000
C343        C  0.43874343  0.37185421  0.69123255    -0.12200
C344        C  0.46368518  0.38674077  0.69627056     0.01500
C345        C  0.46288405  0.41630799  0.69597380    -0.10700
C346        C  0.43781951  0.43123965  0.68946680     0.04000
C347        C  0.41268888  0.41542004  0.68503040    -0.10100
H348        H  0.43898175  0.34906958  0.69107193     0.09600
H349        H  0.48197714  0.42770286  0.70104484     0.07100
H350        H  0.39314682  0.42597504  0.67990446     0.06900
C351        C  0.41865969  0.51045246  0.69132068     0.04000
C352        C  0.41580863  0.48078314  0.69283705    -0.12200
C353        C  0.43904496  0.46296729  0.68628562     0.01500
C354        C  0.46451263  0.47579820  0.67704211    -0.10700
C355        C  0.46734597  0.50516847  0.67545499     0.04000
C356        C  0.44440791  0.52200860  0.68273015    -0.10100
H357        H  0.39609242  0.47184451  0.70007877     0.09600
H358        H  0.48225666  0.46304166  0.67060232     0.07100
H359        H  0.44661545  0.54468531  0.68207215     0.06900
C360        C  0.74521579  0.36611914  0.38007144     0.04000
C361        C  0.75413950  0.39060370  0.36636236    -0.12200
C362        C  0.76183800  0.41471817  0.38140327     0.01500
C363        C  0.76038706  0.41416306  0.41105009    -0.10700
C364        C  0.75075206  0.39000528  0.42579667     0.04000
C365        C  0.74360959  0.36567126  0.40982722    -0.10100
H366        H  0.75454714  0.39076436  0.34353055     0.09600
H367        H  0.76717618  0.43262167  0.42260487     0.07100
H368        H  0.73602193  0.34684870  0.42023011     0.06900
C369        C  0.75179226  0.36899282  0.50437944     0.04000
C370        C  0.75223911  0.36677272  0.47465524    -0.12200
C371        C  0.74799943  0.39098921  0.45756483     0.01500
C372        C  0.74189669  0.41694063  0.47117543    -0.10700
C373        C  0.74136281  0.41917339  0.50074637     0.04000
C374        C  0.74663911  0.39514217  0.51684904    -0.10100
H375        H  0.75705810  0.34663938  0.46510612     0.09600
H376        H  0.73710194  0.43545336  0.45881812     0.07100
H377        H  0.74681732  0.39663609  0.53963349     0.06900
O378        O  0.64759140  0.68132095  0.59844141    -0.77700
C379        C  0.63171413  0.61620152  0.65901605     0.83400
O380        O  0.70253663  0.71843201  0.67010151    -0.78800
O381        O  0.71699059  0.61537661  0.69419884    -0.80300
O382        O  0.71985742  0.61323258  0.58835362    -0.80100
O383        O  0.68525308  0.67276556  0.57172040    -0.78700
Zn384      Zn  0.65879366  0.67124777  0.63865502     1.55700
O385        O  0.71305859  0.58806759  0.62754337    -0.80100
Cd386      Cd  0.71283299  0.65465552  0.60061091     1.59700
Cd387      Cd  0.72162833  0.67950956  0.66384263     1.59600
O388        O  0.75171119  0.67462602  0.59948782    -0.80100
O389        O  0.69675284  0.65573948  0.63953945    -1.90600
Cd390      Cd  0.69640937  0.61693075  0.65563262     1.59900
O391        O  0.76078779  0.68507762  0.64461679    -0.80000
O392        O  0.65535226  0.60391063  0.66200590    -0.78700
C393        C  0.67641353  0.72482450  0.67012825     0.83900
C394        C  0.65987919  0.68122539  0.57451561     0.83500
O395        O  0.62999383  0.64196513  0.65149177    -0.77600
C396        C  0.71967364  0.58982937  0.60153520     0.84300
O397        O  0.65738299  0.70771516  0.66157345    -0.77700
C398        C  0.76825913  0.68343114  0.61880524     0.84400
C399        C  0.72621946  0.63463305  0.71055689     0.84800
O400        O  0.72775322  0.66038012  0.70301857    -0.80200
C401        C  0.73675534  0.49064021  0.52598157     0.21200
C402        C  0.74057996  0.52002331  0.52573931    -0.38700
C403        C  0.73466424  0.53399588  0.55125290     0.20200
C404        C  0.72585385  0.51973540  0.57515308     0.22800
C405        C  0.72184090  0.49052072  0.57532291    -0.39200
C406        C  0.72757586  0.47666849  0.54986349     0.21600
N407        N  0.74174972  0.47225361  0.50486395    -0.32500
C408        C  0.73585976  0.44633468  0.51552706    -0.10000
C409        C  0.72656236  0.44852685  0.54346625    -0.28800
N410        N  0.72086354  0.53771601  0.59644414    -0.45400
C411        C  0.72607716  0.56375436  0.58599518    -0.04700
C412        C  0.73493375  0.56230128  0.55791286    -0.22100
H413        H  0.74754344  0.53118013  0.50709108     0.19700
H414        H  0.71476215  0.47936575  0.59393724     0.18500
H415        H  0.72042854  0.43177832  0.55766202     0.14800
H416        H  0.73981415  0.57966541  0.54396005     0.14700
H417        H  0.74979812  0.47701038  0.48491722     0.32800
H418        H  0.71316365  0.53265976  0.61646514     0.35600
C419        C  0.52260166  0.55358446  0.65806874     0.21200
C420        C  0.53339006  0.58044205  0.65204360    -0.38700
C421        C  0.56205021  0.58446962  0.65792293     0.20200
C422        C  0.57883174  0.56320386  0.66859810     0.22800
C423        C  0.56801458  0.53623997  0.67464837    -0.39200
C424        C  0.53913041  0.53231139  0.66910640     0.21600
N425        N  0.49554959  0.54551681  0.65664782    -0.32500
C426        C  0.49434411  0.51911026  0.66755236    -0.10000
C427        C  0.52136064  0.50987943  0.67499474    -0.28800
N428        N  0.60555644  0.57225476  0.67161567    -0.45400
C429        C  0.60575204  0.59947380  0.66283167    -0.04700
C430        C  0.57890387  0.60788856  0.65434150    -0.22100
H431        H  0.52024148  0.59718288  0.64391982     0.19700
H432        H  0.58099006  0.51975282  0.68353000     0.18500
H433        H  0.52689612  0.49046212  0.68554989     0.14800
H434        H  0.57281273  0.62799906  0.64553483     0.14700
H435        H  0.47875284  0.55798534  0.64986956     0.32800
H436        H  0.62277873  0.56038438  0.67842946     0.35600
C437        C  0.01390293  0.84083527  0.21025067     0.21200
C438        C  0.02575666  0.81467049  0.21692669    -0.38700
C439        C  0.05420908  0.81129815  0.20981006     0.20200
C440        C  0.06984977  0.83244885  0.19719753     0.22800
C441        C  0.05791109  0.85870065  0.19037520    -0.39200
C442        C  0.02929807  0.86204588  0.19744738     0.21600
N443        N  0.98707859  0.84880143  0.21425711    -0.32500
C444        C  0.98507598  0.87529447  0.20379230    -0.10000
C445        C  0.01112594  0.88439841  0.19333059    -0.28800
N446        N  0.09695298  0.82448093  0.19439368    -0.45400
C447        C  0.09846596  0.79807178  0.20530512    -0.04700
C448        C  0.07212784  0.78910869  0.21483081    -0.22100
H449        H  0.01371865  0.79816857  0.22709997     0.19700
H450        H  0.07003919  0.87534542  0.18054891     0.18500
H451        H  0.01577919  0.90411864  0.18287540     0.14800
H452        H  0.06715494  0.76969722  0.22571325     0.14700
H453        H  0.97100486  0.83663075  0.22313428     0.32800
H454        H  0.11360679  0.83672190  0.18675898     0.35600
C455        C  0.01430179  0.06098536  0.18289462     0.21200
C456        C  0.02616189  0.08708771  0.17567071    -0.38700
C457        C  0.05552238  0.08906448  0.17828679     0.20200
C458        C  0.07183109  0.06670874  0.18737759     0.22800
C459        C  0.05993466  0.04053028  0.19456941    -0.39200
C460        C  0.03049046  0.03855378  0.19193721     0.21600
N461        N  0.98695401  0.05384507  0.18193858    -0.32500
C462        C  0.98541218  0.02659409  0.19048688    -0.10000
C463        C  0.01230563  0.01629107  0.19682415    -0.28800
N464        N  0.09932775  0.07360411  0.18683071    -0.45400
C465        C  0.10053973  0.10049496  0.17723036    -0.04700
C466        C  0.07358629  0.11088741  0.17178704    -0.22100
H467        H  0.01346399  0.10448902  0.16825231     0.19700
H468        H  0.07269260  0.02292218  0.20135931     0.18500
H469        H  0.01780154  0.99553406  0.20442363     0.14800
H470        H  0.06804796  0.13118902  0.16304978     0.14700
H471        H  0.97047672  0.06683843  0.17539283     0.32800
H472        H  0.11628344  0.06045473  0.19166208     0.35600
C473        C  0.20432564  0.88796287  0.30019897     0.21200
C474        C  0.20410537  0.91749366  0.29965103    -0.38700
C475        C  0.20567209  0.93084627  0.32607338     0.20200
C476        C  0.20740347  0.91605819  0.35111656     0.22800
C477        C  0.20738977  0.88652783  0.35168446    -0.39200
C478        C  0.20581701  0.87315668  0.32530184     0.21600
N479        N  0.20364048  0.87026303  0.27798443    -0.32500
C480        C  0.20467179  0.84400466  0.28912392    -0.10000
C481        C  0.20603094  0.84501177  0.31853935    -0.28800
N482        N  0.21118628  0.93366334  0.37308366    -0.45400
C483        C  0.21218460  0.96001928  0.36201433    -0.04700
C484        C  0.20819548  0.95889896  0.33267324    -0.22100
H485        H  0.20348102  0.92921997  0.28008603     0.19700
H486        H  0.20917399  0.87481288  0.37118001     0.18500
H487        H  0.20690296  0.82744813  0.33305227     0.14800
H488        H  0.20852732  0.97598883  0.31762683     0.14700
H489        H  0.20242002  0.87568388  0.25666101     0.32800
H490        H  0.21480086  0.92775378  0.39398710     0.35600
C491        C  0.24507631  0.11303349  0.28491740     0.21200
C492        C  0.23854686  0.11314856  0.31390862    -0.38700
C493        C  0.24953232  0.09073856  0.32987237     0.20200
C494        C  0.26626664  0.07013737  0.31782559     0.22800
C495        C  0.27247937  0.06981823  0.28884317    -0.39200
C496        C  0.26099116  0.09180449  0.27284759     0.21600
N497        N  0.23395309  0.12965686  0.26478479    -0.32500
C498        C  0.24215444  0.11848922  0.23974648    -0.10000
C499        C  0.25912159  0.09489000  0.24393482    -0.28800
N500        N  0.26995908  0.04871985  0.33585961    -0.45400
C501        C  0.25460129  0.05482421  0.35924523    -0.04700
C502        C  0.24216048  0.08134691  0.35657348    -0.22100
H503        H  0.22412305  0.12832978  0.32291551     0.19700
H504        H  0.28351242  0.05240825  0.27908552     0.18500
H505        H  0.26723734  0.08072169  0.22798681     0.14800
H506        H  0.22621076  0.09033837  0.37018577     0.14700
H507        H  0.21958532  0.14603087  0.26778583     0.32800
H508        H  0.27905447  0.02929495  0.33094531     0.35600
C509        C  0.35574319  0.33807709  0.69322253     0.21200
C510        C  0.33610806  0.32293364  0.70957914    -0.38700
C511        C  0.33115169  0.29484914  0.70135764     0.20200
C512        C  0.34523536  0.28251222  0.67896760     0.22800
C513        C  0.36466699  0.29765467  0.66251273    -0.39200
C514        C  0.36911477  0.32589619  0.67033447     0.21600
N515        N  0.36729560  0.36341482  0.69923440    -0.32500
C516        C  0.38833413  0.36741310  0.68019081    -0.10000
C517        C  0.38953658  0.34457325  0.66151149    -0.28800
N518        N  0.33951060  0.25473661  0.67760298    -0.45400
C519        C  0.32120277  0.24942211  0.69892181    -0.04700
C520        C  0.31544650  0.27390867  0.71415979    -0.22100
H521        H  0.32646086  0.33190335  0.72822198     0.19700
H522        H  0.37660203  0.28774806  0.64576707     0.18500
H523        H  0.40589857  0.34037981  0.64615204     0.14800
H524        H  0.30317695  0.27566485  0.73333298     0.14700
H525        H  0.36346347  0.37553395  0.71723529     0.32800
H526        H  0.34850615  0.24004374  0.66388771     0.35600
C527        C  0.26860729  0.07740638  0.55362088     0.21200
C528        C  0.28699209  0.08263554  0.57624584    -0.38700
C529        C  0.27576058  0.09785618  0.59895431     0.20200
C530        C  0.24837526  0.10782913  0.59904397     0.22800
C531        C  0.22976176  0.10232504  0.57640091    -0.39200
C532        C  0.24091645  0.08653508  0.55372916     0.21600
N533        N  0.27323019  0.05979683  0.53193254    -0.32500
C534        C  0.24835875  0.05692722  0.51811314    -0.10000
C535        C  0.22766711  0.07362479  0.53094338    -0.28800
N536        N  0.24255890  0.12053043  0.62392825    -0.45400
C537        C  0.26624632  0.11792330  0.63988881    -0.04700
C538        C  0.28731797  0.10391754  0.62495334    -0.22100
H539        H  0.30811956  0.07407024  0.57680735     0.19700
H540        H  0.20784126  0.10858431  0.57705307     0.18500
H541        H  0.20528527  0.07348613  0.52647186     0.14800
H542        H  0.30819150  0.09844907  0.63236921     0.14700
H543        H  0.29140575  0.04783554  0.52863683     0.32800
H544        H  0.22336397  0.12933474  0.63011468     0.35600
C545        C  0.25843319  0.82727044  0.05908363     0.21200
C546        C  0.26579794  0.82667518  0.08778739    -0.38700
C547        C  0.25295946  0.80559000  0.10401914     0.20200
C548        C  0.23454776  0.78608582  0.09245542     0.22800
C549        C  0.22699647  0.78680529  0.06370214    -0.39200
C550        C  0.23953545  0.80826378  0.04747272     0.21600
N551        N  0.26376239  0.84826224  0.04091437    -0.32500
C552        C  0.24765796  0.84334691  0.01772407    -0.10000
C553        C  0.23270598  0.81812937  0.02079663    -0.28800
N554        N  0.22312994  0.76995393  0.11287291    -0.45400
C555        C  0.23392483  0.77966404  0.13757605    -0.04700
C556        C  0.25259863  0.80187168  0.13289623    -0.22100
H557        H  0.27900056  0.84276187  0.09721571     0.19700
H558        H  0.21106453  0.77290139  0.05505839     0.18500
H559        H  0.21597619  0.81039018  0.00729733     0.14800
H560        H  0.26321395  0.81460408  0.14862530     0.14700
H561        H  0.27495431  0.86670129  0.04545800     0.32800
H562        H  0.20744506  0.75467073  0.11038858     0.35600
C563        C  0.20499275  0.96923816  0.04576703     0.21200
C564        C  0.19903463  0.98006514  0.07271833    -0.38700
C565        C  0.20372789  0.00902065  0.07627762     0.20200
C566        C  0.21336371  0.02589365  0.05451940     0.22800
C567        C  0.21930333  0.01506952  0.02755171    -0.39200
C568        C  0.21477835  0.98604711  0.02404372     0.21600
N569        N  0.20432197  0.94212519  0.03777676    -0.32500
C570        C  0.21416853  0.94136792  0.01085991    -0.10000
C571        C  0.22046007  0.96855563  0.00141048    -0.28800
N572        N  0.21588764  0.05271622  0.06317474    -0.45400
C573        C  0.20786466  0.05299473  0.09065208    -0.04700
C574        C  0.20025481  0.02605967  0.09966436    -0.22100
H575        H  0.19181034  0.96679181  0.08981546     0.19700
H576        H  0.22732822  0.02819849  0.01070158     0.18500
H577        H  0.22994156  0.97449291  0.98150916     0.14800
H578        H  0.19254871  0.01992880  0.12026364     0.14700
H579        H  0.19850314  0.92508771  0.05043104     0.32800
H580        H  0.22234497  0.06988766  0.05100149     0.35600
C581        C  0.24921387  0.97514763  0.82968816     0.21200
C582        C  0.25253781  0.98833987  0.80346741    -0.38700
C583        C  0.25403302  0.01776859  0.80406671     0.20200
C584        C  0.25233826  0.03306574  0.82887853     0.22800
C585        C  0.24888788  0.01979553  0.85522370    -0.39200
C586        C  0.24739374  0.99018364  0.85458585     0.21600
N587        N  0.24777516  0.94737231  0.83455286    -0.32500
C588        C  0.24485498  0.94421803  0.86292823    -0.10000
C589        C  0.24453167  0.97074091  0.87608002    -0.28800
N590        N  0.25574196  0.06076495  0.82368149    -0.45400
C591        C  0.25975547  0.06292017  0.79536623    -0.04700
C592        C  0.25866643  0.03653912  0.78250223    -0.22100
H593        H  0.25427928  0.97649527  0.78401509     0.19700
H594        H  0.24786892  0.03158489  0.87475952     0.18500
H595        H  0.24224678  0.97547019  0.89828767     0.14800
H596        H  0.26197900  0.03163693  0.76043814     0.14700
H597        H  0.24899174  0.93183939  0.81903190     0.32800
H598        H  0.25637777  0.07701591  0.83855051     0.35600
C599        C  0.37920256  0.16068059  0.06663473     0.21200
C600        C  0.35369324  0.14593461  0.06821963    -0.38700
C601        C  0.33313416  0.15770954  0.08569130     0.20200
C602        C  0.33754574  0.18214630  0.10102248     0.22800
C603        C  0.36305875  0.19727559  0.09908310    -0.39200
C604        C  0.38368574  0.18563015  0.08112134     0.21600
N605        N  0.39991555  0.15601867  0.04801094    -0.32500
C606        C  0.41755233  0.17840997  0.04971540    -0.10000
C607        C  0.40836973  0.19715922  0.07057434    -0.28800
N608        N  0.31402129  0.18922548  0.11539476    -0.45400
C609        C  0.29459011  0.16933602  0.10847646    -0.04700
C610        C  0.30578118  0.14947361  0.09001993    -0.22100
H611        H  0.34962361  0.12735427  0.05558201     0.19700
H612        H  0.36609367  0.21728197  0.10963371     0.18500
H613        H  0.41621908  0.21823690  0.07442274     0.14800
H614        H  0.29520659  0.13138480  0.08091475     0.14700
H615        H  0.39993058  0.14055405  0.03229758     0.32800
H616        H  0.31112884  0.20675804  0.12839698     0.35600
C617        C  0.40554776  0.20132569  0.90426548     0.21200
C618        C  0.40635169  0.19795806  0.87484605    -0.38700
C619        C  0.38004830  0.19578463  0.86139080     0.20200
C620        C  0.35484450  0.19655600  0.87609960     0.22800
C621        C  0.35406050  0.20021082  0.90547585    -0.39200
C622        C  0.38036901  0.20266243  0.91886227     0.21600
N623        N  0.42757245  0.20154700  0.92217241    -0.32500
C624        C  0.41642220  0.20291471  0.94856145    -0.10000
C625        C  0.38690479  0.20412639  0.94706911    -0.28800
N626        N  0.33288071  0.19181243  0.85870449    -0.45400
C627        C  0.34420580  0.18818277  0.83268296    -0.04700
C628        C  0.37354159  0.19072148  0.83353504    -0.22100
H629        H  0.42600976  0.19626856  0.86337491     0.19700
H630        H  0.33446008  0.20020102  0.91717402     0.18500
H631        H  0.37181384  0.20462377  0.96414793     0.14800
H632        H  0.38823259  0.18783158  0.81630032     0.14700
H633        H  0.44872143  0.19918242  0.91657670     0.32800
H634        H  0.31163582  0.19028810  0.86432071     0.35600
C635        C  0.60909893  0.23436191  0.06516170     0.21200
C636        C  0.63411529  0.24970664  0.06794827    -0.38700
C637        C  0.65382243  0.23884275  0.08689687     0.20200
C638        C  0.64909107  0.21471144  0.10255887     0.22800
C639        C  0.62384291  0.19921060  0.09977690    -0.39200
C640        C  0.60406547  0.20992620  0.08030204     0.21600
N641        N  0.58969969  0.23782836  0.04492152    -0.32500
C642        C  0.57227291  0.21529354  0.04649041    -0.10000
C643        C  0.58018456  0.19762585  0.06871834    -0.28800
N644        N  0.67239141  0.20788439  0.11750209    -0.45400
C645        C  0.69195835  0.22763833  0.11056824    -0.04700
C646        C  0.68101220  0.24721198  0.09172087    -0.22100
H647        H  0.63869875  0.26782004  0.05486287     0.19700
H648        H  0.62058551  0.17941366  0.11059866     0.18500
H649        H  0.57204265  0.17679281  0.07316923     0.14800
H650        H  0.69186750  0.26487422  0.08217012     0.14700
H651        H  0.59025282  0.25285257  0.02883304     0.32800
H652        H  0.67520684  0.19034647  0.13047149     0.35600
C653        C  0.84071209  0.11565982  0.20088782     0.21200
C654        C  0.85671454  0.09944156  0.21976549    -0.38700
C655        C  0.86218566  0.07157486  0.21142938     0.20200
C656        C  0.85279260  0.06069046  0.18600408     0.22800
C657        C  0.83668174  0.07693144  0.16711965    -0.39200
C658        C  0.83083043  0.10471690  0.17565657     0.21600
N659        N  0.83475989  0.14331728  0.20288360    -0.32500
C660        C  0.82062620  0.15001175  0.17895122    -0.10000
C661        C  0.81774066  0.12649996  0.16144620    -0.28800
N662        N  0.86478994  0.03546251  0.18091650    -0.45400
C663        C  0.88226254  0.03033585  0.20302214    -0.04700
C664        C  0.88063944  0.05225029  0.22269993    -0.22100
H665        H  0.86552691  0.10831942  0.23889203     0.19700
H666        H  0.83034582  0.06896970  0.14665881     0.18500
H667        H  0.80870577  0.12584090  0.14047685     0.14800
H668        H  0.89430452  0.05552805  0.24072235     0.14700
H669        H  0.84077688  0.15703850  0.21905781     0.32800
H670        H  0.86398935  0.02425211  0.16194717     0.35600
C671        C  0.74863205  0.30939816  0.33166075     0.21200
C672        C  0.76406076  0.28965828  0.31578049    -0.38700
C673        C  0.75560816  0.28607380  0.28753489     0.20200
C674        C  0.73385253  0.30150380  0.27577162     0.22800
C675        C  0.71827084  0.32100202  0.29166860    -0.39200
C676        C  0.72634825  0.32414834  0.32004366     0.21600
N677        N  0.75544197  0.31999748  0.35720785    -0.32500
C678        C  0.73759269  0.34183069  0.36189204    -0.10000
C679        C  0.71877735  0.34452043  0.33930642    -0.28800
N680        N  0.73234981  0.29703247  0.24773928    -0.45400
C681        C  0.75294005  0.27822058  0.24166737    -0.04700
C682        C  0.76780275  0.27077316  0.26594324    -0.22100
H683        H  0.78233250  0.27903258  0.32432419     0.19700
H684        H  0.70213325  0.33402229  0.28219805     0.18500
H685        H  0.70444875  0.36183920  0.33556552     0.14800
H686        H  0.78642341  0.25769543  0.26720278     0.14700
H687        H  0.77343278  0.31513557  0.36894302     0.32800
H688        H  0.71902903  0.30711201  0.23340649     0.35600
C689        C  0.13159929  0.18070859  0.00758342     0.21200
C690        C  0.13208784  0.17824208  0.97805865    -0.38700
C691        C  0.10632182  0.18301015  0.96427661     0.20200
C692        C  0.08189583  0.18969402  0.97869210     0.22800
C693        C  0.08139526  0.19217028  0.00825234    -0.39200
C694        C  0.10718686  0.18742971  0.02207881     0.21600
N695        N  0.15295706  0.17584462  0.02562715    -0.32500
C696        C  0.14206924  0.17930639  0.05187437    -0.10000
C697        C  0.11361630  0.18677940  0.05046854    -0.28800
N698        N  0.06030827  0.19348724  0.96061289    -0.45400
C699        C  0.07105548  0.18936710  0.93434736    -0.04700
C700        C  0.09975248  0.18258151  0.93599360    -0.22100
H701        H  0.15108965  0.17280457  0.96665591     0.19700
H702        H  0.06228437  0.19716495  0.01967088     0.18500
H703        H  0.09921358  0.18987749  0.06790614     0.14800
H704        H  0.11415086  0.17811164  0.91887283     0.14700
H705        H  0.17334681  0.16937778  0.02043006     0.32800
H706        H  0.03978764  0.19941674  0.96590488     0.35600
C707        C  0.10170257  0.19735742  0.79894897     0.21200
C708        C  0.11714455  0.18068558  0.77981737    -0.38700
C709        C  0.14526610  0.18899709  0.77499177     0.20200
C710        C  0.15721195  0.21192011  0.78858788     0.22800
C711        C  0.14171695  0.22878331  0.80730577    -0.39200
C712        C  0.11357823  0.22072006  0.81181555     0.21600
N713        N  0.07670874  0.19098152  0.81101352    -0.32500
C714        C  0.07281725  0.21014447  0.83195910    -0.10000
C715        C  0.09513574  0.22940836  0.83246015    -0.28800
N716        N  0.18514181  0.21315265  0.78366411    -0.45400
C717        C  0.19107769  0.19115351  0.76643870    -0.04700
C718        C  0.16671733  0.17569006  0.76037926    -0.22100
H719        H  0.10849355  0.16158474  0.77078290     0.19700
H720        H  0.15143217  0.24581113  0.81903168     0.18500
H721        H  0.09937640  0.24496801  0.84864455     0.14800
H722        H  0.16533978  0.15608575  0.74878105     0.14700
H723        H  0.06498493  0.17261144  0.80776013     0.32800
H724        H  0.19954906  0.22726230  0.79258247     0.35600
C725        C  0.88408531  0.21339730  0.96488599     0.21200
C726        C  0.85771501  0.21989806  0.97660399    -0.38700
C727        C  0.85614140  0.21872475  0.00610608     0.20200
C728        C  0.87914874  0.21181502  0.02267005     0.22800
C729        C  0.90557489  0.20540201  0.01091965    -0.39200
C730        C  0.90710466  0.20641496  0.98134789     0.21600
N731        N  0.89082619  0.21268657  0.93741456    -0.32500
C732        C  0.91839009  0.20501636  0.93609472    -0.10000
C733        C  0.92929193  0.20106921  0.96324608    -0.28800
N734        N  0.87238825  0.21303882  0.05017892    -0.45400
C735        C  0.84489225  0.22079479  0.05113200    -0.04700
C736        C  0.83399715  0.22443165  0.02402668    -0.22100
H737        H  0.83974781  0.22546855  0.96368210     0.19700
H738        H  0.92360766  0.20008016  0.02384844     0.18500
H739        H  0.95035655  0.19451196  0.96901230     0.14800
H740        H  0.81303794  0.23134703  0.01825820     0.14700
H741        H  0.87729121  0.21742312  0.92070942     0.32800
H742        H  0.88587699  0.20960742  0.06726391     0.35600
C743        C  0.77355970  0.52489625  0.32182913     0.21200
C744        C  0.76854601  0.51444569  0.34908671    -0.38700
C745        C  0.77141532  0.48525720  0.35235338     0.20200
C746        C  0.77893385  0.46789428  0.33017727     0.22800
C747        C  0.78410614  0.47837544  0.30289109    -0.39200
C748        C  0.78098071  0.50758895  0.29954328     0.21600
N749        N  0.77208375  0.55180075  0.31340186    -0.32500
C750        C  0.77865364  0.55187657  0.28553376    -0.10000
C751        C  0.78421530  0.52457862  0.27601774    -0.28800
N752        N  0.77832201  0.44080341  0.33823695    -0.45400
C753        C  0.76981474  0.44069894  0.36566605    -0.04700
C754        C  0.76580354  0.46824183  0.37528988    -0.22100
H755        H  0.76229693  0.52800625  0.36635324     0.19700
H756        H  0.78956298  0.46470585  0.28544111     0.18500
H757        H  0.79051344  0.51815688  0.25502766     0.14800
H758        H  0.75785198  0.47489107  0.39563164     0.14700
H759        H  0.76739365  0.56920155  0.32606024     0.32800
H760        H  0.78259944  0.42351151  0.32532191     0.35600
C761        C  0.86629255  0.82916106  0.17210823     0.21200
C762        C  0.86492764  0.80100591  0.16315341    -0.38700
C763        C  0.84545903  0.78382484  0.17723169     0.20200
C764        C  0.82816309  0.79394300  0.19843409     0.22800
C765        C  0.82979446  0.82215355  0.20771288    -0.39200
C766        C  0.84967257  0.83937403  0.19380325     0.21600
N767        N  0.88633315  0.84790080  0.16522622    -0.32500
C768        C  0.88341675  0.87008309  0.18306406    -0.10000
C769        C  0.86024513  0.86577515  0.20087164    -0.28800
N770        N  0.81327239  0.77267358  0.21006833    -0.45400
C771        C  0.82162558  0.74889747  0.19649526    -0.04700
C772        C  0.84168882  0.75505295  0.17593518    -0.22100
H773        H  0.87934520  0.79262491  0.14757124     0.19700
H774        H  0.81775604  0.82964930  0.22559795     0.18500
H775        H  0.85456398  0.87821912  0.21914748     0.14800
H776        H  0.85312960  0.74024442  0.16289146     0.14700
H777        H  0.90326320  0.84424508  0.15160129     0.32800
H778        H  0.79980199  0.77392974  0.22745810     0.35600
C779        C  0.12293395  0.32683303  0.21053025     0.21200
C780        C  0.12487218  0.29845966  0.21853964    -0.38700
C781        C  0.14512464  0.28235174  0.20434971     0.20200
C782        C  0.16258868  0.29365379  0.18388868     0.22800
C783        C  0.16041444  0.32211315  0.17558384    -0.39200
C784        C  0.13977636  0.33826951  0.18962990     0.21600
N785        N  0.10232856  0.34477148  0.21770331    -0.32500
C786        C  0.10513159  0.36769478  0.20083885    -0.10000
C787        C  0.12877899  0.36465762  0.18339885    -0.28800
N788        N  0.17812059  0.27316983  0.17171639    -0.45400
C789        C  0.17003916  0.24871196  0.18422347    -0.04700
C790        C  0.14950166  0.25366403  0.20463035    -0.22100
H791        H  0.11033241  0.28913268  0.23346870     0.19700
H792        H  0.17264286  0.33056233  0.15826083     0.18500
H793        H  0.13467162  0.37801358  0.16586766     0.14800
H794        H  0.13799273  0.23811199  0.21673186     0.14700
H795        H  0.08535230  0.34024908  0.23101867     0.32800
H796        H  0.19172233  0.27535829  0.15452132     0.35600
C797        C  0.95889097  0.36326695  0.18234916     0.21200
C798        C  0.92946695  0.36399379  0.18616035    -0.38700
C799        C  0.91510824  0.33856082  0.18082263     0.20200
C800        C  0.92909864  0.31435040  0.17257552     0.22800
C801        C  0.95835927  0.31365389  0.16881476    -0.39200
C802        C  0.97258742  0.33898812  0.17395360     0.21600
N803        N  0.97751851  0.38441734  0.18608591    -0.32500
C804        C  0.00327611  0.37337710  0.18015227    -0.10000
C805        C  0.00081728  0.34510387  0.17229107    -0.28800
N806        N  0.91083990  0.29328723  0.16767988    -0.45400
C807        C  0.88487221  0.30404734  0.17254618    -0.04700
C808        C  0.88664106  0.33225147  0.18095038    -0.22100
H809        H  0.91854996  0.38298313  0.19245097     0.19700
H810        H  0.96924575  0.29479187  0.16209047     0.18500
H811        H  0.01743750  0.33068387  0.16638043     0.14800
H812        H  0.86940732  0.34649309  0.18538134     0.14700
H813        H  0.97302556  0.40477091  0.19311882     0.32800
H814        H  0.91570853  0.27312312  0.16033425     0.35600
C815        C  0.13915307  0.55688860  0.19641065     0.21200
C816        C  0.15325358  0.57441042  0.21583178    -0.38700
C817        C  0.16059532  0.60141049  0.20606933     0.20200
C818        C  0.15436061  0.61031821  0.17897279     0.22800
C819        C  0.14042759  0.59278396  0.15954112    -0.39200
C820        C  0.13306289  0.56582547  0.16929773     0.21600
N821        N  0.12545666  0.53266824  0.20214484    -0.32500
C822        C  0.11004770  0.52636247  0.17882078    -0.10000
C823        C  0.11478737  0.54635620  0.15772979    -0.28800
N824        N  0.16050095  0.63784892  0.17585286    -0.45400
C825        C  0.17080730  0.64654998  0.20108175    -0.04700
C826        C  0.17124274  0.62443540  0.22045547    -0.22100
H827        H  0.15655991  0.56817171  0.23754435     0.19700
H828        H  0.13402618  0.60028221  0.13895524     0.18500
H829        H  0.10312569  0.54862194  0.13822309     0.14800
H830        H  0.17687575  0.62553502  0.24256846     0.14700
H831        H  0.12363762  0.52318084  0.22194380     0.32800
H832        H  0.15655899  0.65031955  0.15814689     0.35600
C833        C  0.91836526  0.56422733  0.19020026     0.21200
C834        C  0.93046626  0.53744494  0.18650875    -0.38700
C835        C  0.96009946  0.53657155  0.18638705     0.20200
C836        C  0.97635626  0.56052806  0.18965577     0.22800
C837        C  0.96429403  0.58729984  0.19329626    -0.39200
C838        C  0.93470138  0.58819002  0.19346519     0.21600
N839        N  0.89081681  0.57042852  0.19293988    -0.32500
C840        C  0.88955836  0.59850258  0.19826930    -0.10000
C841        C  0.91655379  0.61033327  0.19849146    -0.28800
N842        N  0.00393171  0.55405807  0.18964640    -0.45400
C843        C  0.00556976  0.52563243  0.18629703    -0.04700
C844        C  0.97841578  0.51408210  0.18415127    -0.22100
H845        H  0.91774728  0.51859478  0.18450977     0.19700
H846        H  0.97703386  0.60599026  0.19640208     0.18500
H847        H  0.92222406  0.63193173  0.20317099     0.14800
H848        H  0.97263923  0.49221531  0.18129777     0.14700
H849        H  0.87400122  0.55618312  0.19258190     0.32800
H850        H  0.02041043  0.56838536  0.19245744     0.35600
C851        C  0.25602496  0.86480115  0.54904045     0.21200
C852        C  0.25341189  0.87744393  0.52224973    -0.38700
C853        C  0.24970129  0.90688916  0.52218772     0.20200
C854        C  0.24852583  0.92229299  0.54689350     0.22800
C855        C  0.25118826  0.90975131  0.57353425    -0.39200
C856        C  0.25507069  0.88052684  0.57361514     0.21600
N857        N  0.26080320  0.83745065  0.55499842    -0.32500
C858        C  0.26313620  0.83592841  0.58355698    -0.10000
C859        C  0.25959849  0.86240839  0.59580596    -0.28800
N860        N  0.24540990  0.94981384  0.54144757    -0.45400
C861        C  0.24484197  0.95254384  0.51287231    -0.04700
C862        C  0.24733130  0.92590805  0.50016757    -0.22100
H863        H  0.25461286  0.86534264  0.50291898     0.19700
H864        H  0.25075481  0.92197326  0.59282791     0.18500
H865        H  0.26090334  0.86780628  0.61796985     0.14800
H866        H  0.24789672  0.92092274  0.47790292     0.14700
H867        H  0.26317965  0.82102176  0.54052139     0.32800
H868        H  0.24375869  0.96548904  0.55678040     0.35600
C869        C  0.36129368  0.55914485  0.68949162     0.21200
C870        C  0.33857799  0.57276667  0.67598347    -0.38700
C871        C  0.33589893  0.60191249  0.68115509     0.20200
C872        C  0.35476872  0.61641199  0.69810760     0.22800
C873        C  0.37711357  0.60280981  0.71188687    -0.39200
C874        C  0.37950486  0.57372162  0.70705626     0.21600
N875        N  0.37109002  0.53285857  0.68454960    -0.32500
C876        C  0.39587648  0.53075654  0.69881241    -0.10000
C877        C  0.40126769  0.55575880  0.71360299    -0.28800
N878        N  0.35003704  0.64431806  0.69688107    -0.45400
C879        C  0.32769295  0.64781192  0.67940567    -0.04700
C880        C  0.31809599  0.62180245  0.66931806    -0.22100
H881        H  0.32493841  0.56181258  0.66128683     0.19700
H882        H  0.39255804  0.61435466  0.72415519     0.18500
H883        H  0.42049913  0.56135257  0.72461231     0.14800
H884        H  0.30173995  0.61815373  0.65379482     0.14700
H885        H  0.36316763  0.51852669  0.66978946     0.32800
H886        H  0.36199213  0.66017474  0.70646542     0.35600
C887        C  0.23107327  0.79894678  0.76969890     0.21200
C888        C  0.21465738  0.81914415  0.78368691    -0.38700
C889        C  0.21988790  0.82250355  0.81265595     0.20200
C890        C  0.24030076  0.80727304  0.82680290     0.22800
C891        C  0.25635812  0.78645756  0.81284988    -0.39200
C892        C  0.25079036  0.78275143  0.78378743     0.21600
N893        N  0.23233875  0.79439307  0.74168364    -0.32500
C894        C  0.25261434  0.77473385  0.73767590    -0.10000
C895        C  0.26447860  0.76671799  0.76349060    -0.28800
N896        N  0.24494553  0.81845430  0.85269821    -0.45400
C897        C  0.22754986  0.84110807  0.85488237    -0.04700
C898        C  0.21111503  0.84357505  0.83050344    -0.22100
H899        H  0.20014026  0.83263924  0.77242545     0.19700
H900        H  0.27316624  0.77523573  0.82339661     0.18500
H901        H  0.28213795  0.75268907  0.76671999     0.14800
H902        H  0.19749948  0.86099007  0.82496759     0.14700
H903        H  0.22085669  0.80483606  0.72607287     0.32800
H904        H  0.26128148  0.81316085  0.86648637     0.35600
C905        C  0.60801383  0.20476637  0.85746156     0.21200
C906        C  0.58098636  0.20219481  0.86948272    -0.38700
C907        C  0.58024262  0.19712731  0.89871293     0.20200
C908        C  0.60457365  0.19450038  0.91454739     0.22800
C909        C  0.63153656  0.19704337  0.90256219    -0.39200
C910        C  0.63228982  0.20247369  0.87349298     0.21600
N911        N  0.61443963  0.21116295  0.83055245    -0.32500
C912        C  0.64299447  0.21321505  0.82949487    -0.10000
C913        C  0.65484677  0.20791800  0.85592002    -0.28800
N914        N  0.59840173  0.19183236  0.94205200    -0.45400
C915        C  0.56984227  0.19332902  0.94418511    -0.04700
C916        C  0.55779223  0.19620362  0.91733042    -0.22100
H917        H  0.56195954  0.20491722  0.85717098     0.19700
H918        H  0.65053841  0.19591782  0.91517143     0.18500
H919        H  0.67693940  0.20856830  0.86163397     0.14800
H920        H  0.53577145  0.19918121  0.91218116     0.14700
H921        H  0.60022309  0.21472370  0.81409648     0.32800
H922        H  0.61314916  0.18999694  0.95829117     0.35600
C923        C  0.56353611  0.31054558  0.70743704     0.21200
C924        C  0.53423028  0.31026204  0.71115673    -0.38700
C925        C  0.52053995  0.33598166  0.70672800     0.20200
C926        C  0.53482637  0.36019958  0.69911071     0.22800
C927        C  0.56428956  0.36053470  0.69551196    -0.39200
C928        C  0.57809126  0.33472993  0.70004521     0.21600
N929        N  0.58134054  0.28906347  0.71171174    -0.32500
C930        C  0.60758660  0.29953968  0.70745196    -0.10000
C931        C  0.60645100  0.32797292  0.69986354    -0.28800
N932        N  0.51667876  0.38167193  0.69544428    -0.45400
C933        C  0.49054890  0.37100832  0.70062031    -0.04700
C934        C  0.49236709  0.34252923  0.70802117    -0.22100
H935        H  0.52291548  0.29138462  0.71718829     0.19700
H936        H  0.57562723  0.37949518  0.68981381     0.18500
H937        H  0.62400436  0.34209595  0.69615711     0.14800
H938        H  0.47542418  0.32815858  0.71321294     0.14700
H939        H  0.57600742  0.26882087  0.71851166     0.32800
H940        H  0.52180446  0.40198470  0.68874469     0.35600
C941        C  0.76571040  0.32744730  0.56510834     0.21200
C942        C  0.77298520  0.32527796  0.59373352    -0.38700
C943        C  0.75920668  0.30411221  0.60901534     0.20200
C944        C  0.73989425  0.28600847  0.59666984     0.22800
C945        C  0.73231896  0.28840975  0.56796882    -0.39200
C946        C  0.74591464  0.30996121  0.55265570     0.21600
N947        N  0.77287512  0.34842000  0.54758264    -0.32500
C948        C  0.75718950  0.34506876  0.52383301    -0.10000
C949        C  0.74039353  0.32088427  0.52602287    -0.28800
N950        N  0.72800775  0.26934084  0.61641008    -0.45400
C951        C  0.73940595  0.27742436  0.64145704    -0.04700
C952        C  0.75896674  0.29899681  0.63764885    -0.22100
H953        H  0.78711222  0.34015535  0.60379203     0.19700
H954        H  0.71590529  0.27551531  0.55868305     0.18500
H955        H  0.72384680  0.31429987  0.51171410     0.14800
H956        H  0.77030270  0.31045282  0.65385093     0.14700
H957        H  0.78559361  0.36569563  0.55266737     0.32800
H958        H  0.71170587  0.25482337  0.61335297     0.35600
C959        C  0.83033219  0.18531713  0.78892939     0.21200
C960        C  0.84527057  0.16822508  0.80783506    -0.38700
C961        C  0.87336077  0.17603633  0.81299750     0.20200
C962        C  0.88572126  0.19931177  0.80049603     0.22800
C963        C  0.87082850  0.21624106  0.78121055    -0.39200
C964        C  0.84273852  0.20823610  0.77579540     0.21600
N965        N  0.80252174  0.18433736  0.78341022    -0.32500
C966        C  0.79715471  0.20654920  0.76635862    -0.10000
C967        C  0.82171748  0.22185529  0.76091386    -0.28800
N968        N  0.91070530  0.20518828  0.81283847    -0.45400
C969        C  0.91411107  0.18577388  0.83357801    -0.04700
C970        C  0.89143677  0.16692601  0.83376697    -0.22100
H971        H  0.83518194  0.15119028  0.81917823     0.19700
H972        H  0.87985616  0.23527046  0.77245265     0.18500
H973        H  0.82348496  0.24150830  0.74950112     0.14800
H974        H  0.88691067  0.15115768  0.84962354     0.14700
H975        H  0.78781251  0.17027148  0.79184799     0.32800
H976        H  0.92287187  0.22328930  0.80975395     0.35600
C977        C  0.76253028  0.41305174  0.02276909     0.21200
C978        C  0.75837959  0.38373178  0.02401438    -0.38700
C979        C  0.76407007  0.37108733  0.05025891     0.20200
C980        C  0.77293306  0.38650719  0.07345721     0.22800
C981        C  0.77734198  0.41562556  0.07209833    -0.39200
C982        C  0.77187697  0.42815492  0.04593159     0.21600
N983        N  0.75705791  0.43046104  0.00098968    -0.32500
C984        C  0.76275452  0.45688100  0.01055352    -0.10000
C985        C  0.77256965  0.45598975  0.03836649    -0.28800
N986        N  0.77698731  0.36974506  0.09591432    -0.45400
C987        C  0.77109053  0.34329945  0.08694812    -0.04700
C988        C  0.76286389  0.34328018  0.05859101    -0.22100
H989        H  0.75105770  0.37170911  0.00601462     0.19700
H990        H  0.78421995  0.42773249  0.09021663     0.18500
H991        H  0.77835801  0.47343939  0.05189040     0.14800
H992        H  0.75739453  0.32526537  0.04566609     0.14700
H993        H  0.74843961  0.42481624  0.98149464     0.32800
H994        H  0.78424507  0.37580994  0.11583787     0.35600
C995        C  0.74719610  0.58967249  0.04525815     0.21200
C996        C  0.76333860  0.60957406  0.06029383    -0.38700
C997        C  0.75644556  0.61292765  0.08898065     0.20200
C998        C  0.73540261  0.59724603  0.10179352     0.22800
C999        C  0.71910645  0.57767860  0.08675758    -0.39200
C1000       C  0.72567530  0.57467283  0.05806986     0.21600
N1001       N  0.75279208  0.57897421  0.01949194    -0.32500
C1002       C  0.73498554  0.55681308  0.01606364    -0.10000
C1003       C  0.71731120  0.55408273  0.03946816    -0.28800
N1004       N  0.73529533  0.60154716  0.12983670    -0.45400
C1005       C  0.75609765  0.62043176  0.13494887    -0.04700
C1006       C  0.76970978  0.62818592  0.11001894    -0.22100
H1007       H  0.78106852  0.62038477  0.05080816     0.19700
H1008       H  0.70362955  0.56443075  0.09706046     0.18500
H1009       H  0.70334971  0.53661129  0.04407525     0.14800
H1010       H  0.78810316  0.64154902  0.10789294     0.14700
H1011       H  0.77008444  0.58397002  0.00678390     0.32800
H1012       H  0.72267952  0.59136782  0.14475613     0.35600
C1013       C  0.73771652  0.58997613  0.82690100     0.21200
C1014       C  0.72217975  0.61038129  0.81207298    -0.38700
C1015       C  0.73123366  0.61601893  0.78438614     0.20200
C1016       C  0.75377609  0.60202050  0.77225514     0.22800
C1017       C  0.76937347  0.58181159  0.78708113    -0.39200
C1018       C  0.76055290  0.57644954  0.81480957     0.21600
N1019       N  0.73089931  0.57788121  0.85170763    -0.32500
C1020       C  0.74934424  0.55637113  0.85528972    -0.10000
C1021       C  0.76834480  0.55515586  0.83283187    -0.28800
N1022       N  0.75586631  0.60826742  0.74467475    -0.45400
C1023       C  0.73476322  0.62663228  0.73922037    -0.04700
C1024       C  0.71902134  0.63214846  0.76346108    -0.22100
H1025       H  0.70346501  0.62000002  0.82086746     0.19700
H1026       H  0.78610174  0.56988981  0.77717299     0.18500
H1027       H  0.78351809  0.53868581  0.82858982     0.14800
H1028       H  0.69982197  0.64434199  0.76495808     0.14700
H1029       H  0.71294949  0.58194306  0.86380593     0.32800
H1030       H  0.76975881  0.59937430  0.73007883     0.35600
C1031       C  0.72924480  0.41070907  0.85309537     0.21200
C1032       C  0.73571086  0.38183340  0.85326704    -0.38700
C1033       C  0.72901927  0.36702582  0.82845807     0.20200
C1034       C  0.71696574  0.38011366  0.80533277     0.22800
C1035       C  0.71035684  0.40884829  0.80524834    -0.39200
C1036       C  0.71701267  0.42357977  0.82997116     0.21600
N1037       N  0.73474702  0.42972753  0.87340529    -0.32500
C1038       C  0.72622729  0.45494804  0.86298835    -0.10000
C1039       C  0.71475878  0.45179618  0.83601681    -0.28800
N1040       N  0.71252924  0.36161041  0.78439781    -0.45400
C1041       C  0.72150288  0.33639562  0.79421479    -0.04700
C1042       C  0.73199142  0.33888181  0.82167666    -0.22100
H1043       H  0.74541510  0.37171951  0.87126647     0.19700
H1044       H  0.70102922  0.41906213  0.78710503     0.18500
H1045       H  0.70673215  0.46805191  0.82221150     0.14800
H1046       H  0.74006996  0.32228434  0.83504325     0.14700
H1047       H  0.74504316  0.42593382  0.89251093     0.32800
H1048       H  0.70311595  0.36574162  0.76490273     0.35600
C1049       C  0.33850108  0.71937217  0.27580122     0.21200
C1050       C  0.36395096  0.70426671  0.27861445    -0.38700
C1051       C  0.38394339  0.71568454  0.29759316     0.20200
C1052       C  0.37885175  0.74028741  0.31241062     0.22800
C1053       C  0.35351937  0.75514422  0.30976963    -0.39200
C1054       C  0.33367883  0.74371211  0.29112105     0.21600
N1055       N  0.31521572  0.71210290  0.26092839    -0.32500
C1056       C  0.29552638  0.73183093  0.26744405    -0.10000
C1057       C  0.30640656  0.75178687  0.28608581    -0.28800
N1058       N  0.39890339  0.74472482  0.33191517    -0.45400
C1059       C  0.41698011  0.72272107  0.33016573    -0.04700
C1060       C  0.40851656  0.70429962  0.30863629    -0.22100
H1061       H  0.36735452  0.68439595  0.26795277     0.19700
H1062       H  0.34896022  0.77351563  0.32251459     0.18500
H1063       H  0.29544702  0.76948375  0.29540347     0.14800
H1064       H  0.41693943  0.68357770  0.30431391     0.14700
H1065       H  0.31248433  0.69428354  0.24827326     0.32800
H1066       H  0.39849558  0.76007699  0.34773370     0.35600
C1067       C  0.38242128  0.70746984  0.51894708     0.21200
C1068       C  0.40930607  0.70647398  0.50656333    -0.38700
C1069       C  0.40980691  0.70189118  0.47731072     0.20200
C1070       C  0.38541857  0.69836326  0.46169265     0.22800
C1071       C  0.35854401  0.69939779  0.47405597    -0.39200
C1072       C  0.35800611  0.70426524  0.50324127     0.21600
N1073       N  0.37621817  0.71326934  0.54598909    -0.32500
C1074       C  0.34766107  0.71413023  0.54748150    -0.10000
C1075       C  0.33553937  0.70853210  0.52122795    -0.44000
N1076       N  0.39139263  0.69636026  0.43408393    -0.45400
C1077       C  0.41983981  0.69908447  0.43184675    -0.04700
C1078       C  0.43203541  0.70221815  0.45857102    -0.22100
H1079       H  0.42836960  0.70996430  0.51865537     0.19700
H1080       H  0.33943464  0.69758835  0.46168011     0.18500
H1081       H  0.31335296  0.70844628  0.51586323     0.14800
H1082       H  0.45395920  0.70612995  0.46359297     0.14700
H1083       H  0.39055887  0.71747518  0.56220887     0.32800
H1084       H  0.37665514  0.69412366  0.41786732     0.35600
C1085       C  0.60577005  0.70427820  0.46329111     0.21200
C1086       C  0.63269613  0.70288565  0.47551424    -0.38700
C1087       C  0.63341272  0.69952571  0.50488809     0.20200
C1088       C  0.60913367  0.69812168  0.52101148     0.22800
C1089       C  0.58210237  0.69954994  0.50872659    -0.39200
C1090       C  0.58140601  0.70252122  0.47916436     0.21600
N1091       N  0.59972469  0.70535771  0.43562983    -0.32500
C1092       C  0.57116257  0.70390421  0.43340248    -0.10000
C1093       C  0.55902026  0.70235269  0.46037053    -0.28800
N1094       N  0.61556368  0.69287309  0.54819559    -0.45400
C1095       C  0.64408627  0.69041447  0.54924465    -0.04700
C1096       C  0.65592867  0.69467559  0.52264150    -0.22100
H1097       H  0.65171877  0.70322471  0.46290767     0.19700
H1098       H  0.56305952  0.69743045  0.52113343     0.18500
H1099       H  0.53693685  0.70003373  0.46561975     0.14800
H1100       H  0.67793193  0.69303841  0.51681420     0.14700
H1101       H  0.61450670  0.70654553  0.41948267     0.32800
H1102       H  0.60133952  0.68961219  0.56470625     0.35600
C1103       C  0.60753630  0.69338263  0.30001733     0.21200
C1104       C  0.62874421  0.70640509  0.28370051    -0.38700
C1105       C  0.65203915  0.68944112  0.27658756     0.20200
C1106       C  0.65403334  0.66175219  0.28542974     0.22800
C1107       C  0.63277694  0.64868590  0.30133674    -0.39200
C1108       C  0.60951580  0.66550830  0.30823905     0.21600
N1109       N  0.58569833  0.70595177  0.31316370    -0.32500
C1110       C  0.57381319  0.68602553  0.32995417    -0.10000
C1111       C  0.58801033  0.66048023  0.32713768    -0.28800
N1112       N  0.67936640  0.65100175  0.27887025    -0.45400
C1113       C  0.69373456  0.67171728  0.26544232    -0.04700
C1114       C  0.67727951  0.69603074  0.26327157    -0.22100
H1115       H  0.62789667  0.72851792  0.27826727     0.19700
H1116       H  0.63498332  0.62741818  0.30921656     0.18500
H1117       H  0.58522656  0.64182845  0.33995733     0.14800
H1118       H  0.68355011  0.71621314  0.25471685     0.14700
H1119       H  0.58112118  0.72746025  0.31315640     0.32800
H1120       H  0.68679762  0.63093560  0.28392264     0.35600
C1121       C  0.13220674  0.71517999  0.37154612     0.21200
C1122       C  0.13310253  0.71773014  0.40102048    -0.38700
C1123       C  0.10741327  0.71333992  0.41499945     0.20200
C1124       C  0.08275457  0.70689001  0.40080481     0.22800
C1125       C  0.08181805  0.70451611  0.37130798    -0.39200
C1126       C  0.10748854  0.70891783  0.35728496     0.21600
N1127       N  0.15343629  0.71959398  0.35331523    -0.32500
C1128       C  0.14207141  0.71644699  0.32723299    -0.10000
C1129       C  0.11351053  0.70953122  0.32887302    -0.28800
N1130       N  0.06143651  0.70280247  0.41903580    -0.45400
C1131       C  0.07257124  0.70652518  0.44518954    -0.04700
C1132       C  0.10124467  0.71346680  0.44331897    -0.22100
H1133       H  0.15235042  0.72280828  0.41223384     0.19700
H1134       H  0.06250727  0.69971160  0.36009435     0.18500
H1135       H  0.09880622  0.70684078  0.31159746     0.14800
H1136       H  0.11599105  0.71754345  0.46026239     0.14700
H1137       H  0.17401083  0.72575982  0.35828272     0.32800
H1138       H  0.04092190  0.69668339  0.41383683     0.35600
C1139       C  0.15176131  0.70611849  0.60100064     0.21200
C1140       C  0.12354992  0.71489282  0.59818076    -0.38700
C1141       C  0.10674107  0.69904509  0.57948289     0.20200
C1142       C  0.11735104  0.67616267  0.56486997     0.22800
C1143       C  0.14559621  0.66767757  0.56737535    -0.39200
C1144       C  0.16237064  0.68356321  0.58586785     0.21600
N1145       N  0.17253319  0.71904068  0.61548520    -0.32500
C1146       C  0.19651650  0.70484103  0.60919206    -0.10000
C1147       C  0.19105747  0.68262457  0.59073343    -0.28800
N1148       N  0.09877419  0.66724951  0.54542988    -0.45400
C1149       C  0.07627917  0.68480938  0.54690492    -0.04700
C1150       C  0.08030695  0.70467029  0.56836513    -0.22100
H1151       H  0.11570156  0.73359862  0.60859386     0.19700
H1152       H  0.15428105  0.65089058  0.55460283     0.18500
H1153       H  0.20621864  0.66852776  0.58117962     0.14800
H1154       H  0.06763792  0.72318196  0.57236575     0.14700
H1155       H  0.17082943  0.73734685  0.62760672     0.32800
H1156       H  0.10270837  0.65241110  0.52961733     0.35600
C1157       C  0.84128988  0.68659183  0.60147416     0.21200
C1158       C  0.86854308  0.67547018  0.59780428    -0.38700
C1159       C  0.88574949  0.68943121  0.57806183     0.20200
C1160       C  0.87636546  0.71268447  0.56321975     0.22800
C1161       C  0.84909241  0.72354232  0.56663090    -0.39200
C1162       C  0.83194419  0.70957956  0.58619366     0.21600
N1163       N  0.82005458  0.67556170  0.61675616    -0.32500
C1164       C  0.79706247  0.69141763  0.61078934    -0.10000
C1165       C  0.80362170  0.71278607  0.59179945    -0.28800
N1166       N  0.89484202  0.71973453  0.54300103    -0.45400
C1167       C  0.91609627  0.70074172  0.54442415    -0.04700
C1168       C  0.91135730  0.68166049  0.56636851    -0.22100
H1169       H  0.87529090  0.65645575  0.60838933     0.19700
H1170       H  0.84124951  0.74063738  0.55375808     0.18500
H1171       H  0.78921883  0.72752824  0.58207172     0.14800
H1172       H  0.92307019  0.66261219  0.57070377     0.14700
H1173       H  0.82063037  0.65720264  0.62886388     0.32800
H1174       H  0.89169594  0.73468343  0.52715166     0.35600
C1175       C  0.91097211  0.68340039  0.39810042     0.21200
C1176       C  0.91084295  0.68865119  0.36885911    -0.38700
C1177       C  0.88529897  0.68291726  0.35479434     0.20200
C1178       C  0.86177116  0.67288666  0.36887486     0.22800
C1179       C  0.86197542  0.66749861  0.39793149    -0.39200
C1180       C  0.88740942  0.67314558  0.41188780     0.21600
N1181       N  0.93216798  0.68789832  0.41655241    -0.32500
C1182       C  0.92187596  0.68064995  0.44232626    -0.10000
C1183       C  0.89407103  0.67105558  0.44000895    -0.28800
N1184       N  0.84037511  0.66833353  0.35086727    -0.45400
C1185       C  0.85027694  0.67512691  0.32493536    -0.04700
C1186       C  0.87823276  0.68448559  0.32652433    -0.22100
H1187       H  0.92923733  0.69654236  0.35788130     0.19700
H1188       H  0.84361490  0.65951607  0.40890646     0.18500
H1189       H  0.88018795  0.66407093  0.45672028     0.14800
H1190       H  0.89187279  0.69047747  0.30922588     0.14700
H1191       H  0.95193317  0.69650415  0.41200723     0.32800
H1192       H  0.82061948  0.65989400  0.35578395     0.35600
C1193       C  0.47098532  0.05679929  0.71602492     0.21200
C1194       C  0.45942657  0.08242602  0.72506035    -0.38700
C1195       C  0.42998499  0.08433502  0.72379617     0.20200
C1196       C  0.41323849  0.06228054  0.71452368     0.22800
C1197       C  0.42483409  0.03654851  0.70548995    -0.39200
C1198       C  0.45440781  0.03471346  0.70657730     0.21600
N1199       N  0.49843969  0.05031690  0.71417822    -0.32500
C1200       C  0.49965765  0.02388476  0.70331254    -0.10000
C1201       C  0.47247216  0.01336970  0.69846809    -0.28800
N1202       N  0.38586803  0.06969593  0.71489907    -0.45400
C1203       C  0.38529281  0.09675643  0.72416857    -0.04700
C1204       C  0.41241282  0.10654700  0.73001829    -0.22100
H1205       H  0.47246754  0.09981551  0.73207151     0.19700
H1206       H  0.41183935  0.01941200  0.69780136     0.18500
H1207       H  0.46669832  0.99327842  0.68930838     0.14800
H1208       H  0.41845604  0.12718834  0.73765590     0.14700
H1209       H  0.51526608  0.06333134  0.71993289     0.32800
H1210       H  0.36869115  0.05728658  0.70881251     0.35600
C1211       C  0.64371872  0.11554415  0.67579017     0.21200
C1212       C  0.62270672  0.10159539  0.66032334    -0.38700
C1213       C  0.61910223  0.07289130  0.66628722     0.20200
C1214       C  0.63509341  0.05896178  0.68630649     0.22800
C1215       C  0.65665989  0.07285654  0.70138468    -0.39200
C1216       C  0.66041777  0.10164634  0.69526482     0.21600
N1217       N  0.64828338  0.14347393  0.67684705    -0.32500
C1218       C  0.66827966  0.14749885  0.69684753    -0.10000
C1219       C  0.67667993  0.12190837  0.70862297    -0.28800
N1220       N  0.62376536  0.03346725  0.69199313    -0.45400
C1221       C  0.60020947  0.03134680  0.67578514    -0.04700
C1222       C  0.59718793  0.05533496  0.65900772    -0.22100
H1223       H  0.60869695  0.11278181  0.64622483     0.19700
H1224       H  0.66826533  0.06254878  0.71809700     0.18500
H1225       H  0.69092692  0.11883632  0.72619653     0.14800
H1226       H  0.57910263  0.06086961  0.64622742     0.14700
H1227       H  0.63745687  0.15901658  0.66566746     0.32800
H1228       H  0.62962270  0.01999989  0.70838276     0.35600
C1229       C  0.63522512  0.84178540  0.68924417     0.21200
C1230       C  0.65636068  0.82754170  0.67399023    -0.38700
C1231       C  0.65989461  0.79880421  0.68044546     0.20200
C1232       C  0.64315599  0.78520592  0.70012914     0.22800
C1233       C  0.62256146  0.79949433  0.71573038    -0.39200
C1234       C  0.61946626  0.82823534  0.70972152     0.21600
N1235       N  0.62427352  0.86742450  0.68365224    -0.32500
C1236       C  0.60124767  0.87008404  0.70049948    -0.10000
C1237       C  0.59829569  0.84628053  0.71761654    -0.28800
N1238       N  0.64768247  0.75727115  0.69962233    -0.45400
C1239       C  0.66783016  0.75296822  0.67987390    -0.04700
C1240       C  0.67626417  0.77837482  0.66762988    -0.22100
H1241       H  0.66798777  0.83762226  0.65713384     0.19700
H1242       H  0.60866633  0.78860881  0.73020966     0.18500
H1243       H  0.58048300  0.84109671  0.73093946     0.14800
H1244       H  0.69074505  0.78120026  0.65020779     0.14700
H1245       H  0.62989509  0.88061115  0.66693963     0.32800
H1246       H  0.63692964  0.74191358  0.71117794     0.35600
C1247       C  0.45608215  0.86389594  0.67591316     0.21200
C1248       C  0.42656109  0.86389062  0.67878604    -0.38700
C1249       C  0.41310271  0.83796165  0.67361544     0.20200
C1250       C  0.42797888  0.81397445  0.66632096     0.22800
C1251       C  0.45732079  0.81403080  0.66333809    -0.39200
C1252       C  0.47065924  0.83985393  0.66836417     0.21600
N1253       N  0.47405750  0.88546372  0.68038745    -0.32500
C1254       C  0.50028228  0.87490288  0.67579078    -0.10000
C1255       C  0.49875744  0.84656455  0.66791658    -0.28800
N1256       N  0.41047935  0.79220062  0.66184714    -0.45400
C1257       C  0.38413566  0.80232682  0.66602245    -0.04700
C1258       C  0.38487627  0.83078797  0.67353678    -0.22100
H1259       H  0.41495053  0.88263366  0.68454266     0.19700
H1260       H  0.46894276  0.79530569  0.65752540     0.18500
H1261       H  0.51589235  0.83238148  0.66300133     0.14800
H1262       H  0.36714305  0.84456259  0.67743279     0.14700
H1263       H  0.46881932  0.90569843  0.68723904     0.32800
H1264       H  0.41608735  0.77193238  0.65537097     0.35600
loop_ 
_geom_bond_atom_site_label_1 
_geom_bond_atom_site_label_2 
_geom_bond_distance 
_geom_bond_site_symmetry_2 
_ccdc_geom_bond_type 
C1            C2   1.398       .  A
C1            C6   1.413       .  A
C1         C1236   1.486       .  S
C2            C3   1.395       .  A
C2            H7   1.082       .  S
C3            C4   1.401       .  A
C3         C1254   1.487       .  S
C4            C5   1.419       .  A
C4            H8   1.081       .  S
C5            C6   1.422       .  A
C5           C12   1.509       .  S
C6            H9   1.082       .  S
C10          C11   1.413   1_545  A
C10          C15   1.402       .  A
C10        C1221   1.486       .  S
C11          C12   1.420       .  A
C11          H16   1.082       .  S
C12          C13   1.417       .  A
C13          C14   1.401   1_565  A
C13          H17   1.081       .  S
C14          C15   1.396       .  A
C14        C1200   1.488       .  S
C15          H18   1.083       .  S
C19          C20   1.396       .  A
C19          C24   1.408       .  A
C19        C1167   1.478       .  S
C20          C21   1.397       .  A
C20          H25   1.083       .  S
C21          C22   1.405       .  A
C21        C1182   1.489       .  S
C22          C23   1.421       .  A
C22          H26   1.081       .  S
C23          C24   1.419       .  A
C23          C32   1.512   1_655  S
C24          H27   1.082       .  S
C28          C29   1.395       .  A
C28          C33   1.410       .  A
C28        C1149   1.480       .  S
C29          C30   1.396       .  A
C29          H34   1.082       .  S
C30          C31   1.405       .  A
C30        C1131   1.489       .  S
C31          C32   1.417       .  A
C31          H35   1.079       .  S
C32          C33   1.421       .  A
C33          H36   1.081       .  S
C37          C38   1.407       .  A
C37          C42   1.400       .  A
C37        C1110   1.479       .  S
C38          C39   1.416       .  A
C38          H43   1.082       .  S
C39          C40   1.421       .  A
C39          C50   1.512       .  S
C40          C41   1.408       .  A
C40          H44   1.080       .  S
C41          C42   1.402       .  A
C41        C1092   1.499       .  S
C42          H45   1.081       .  S
C46          C47   1.398       .  A
C46          C51   1.412       .  A
C46        C1059   1.482       .  S
C47          C48   1.398       .  A
C47          H52   1.082       .  S
C48          C49   1.403       .  A
C48        C1077   1.489       .  S
C49          C50   1.415       .  A
C49          H53   1.080       .  S
C50          C51   1.421       .  A
C51          H54   1.082       .  S
C55          C56   1.409       .  A
C55          C60   1.399       .  A
C55        C1020   1.478       .  S
C56          C57   1.417       .  A
C56          H61   1.082       .  S
C57          C58   1.412       .  A
C57          C66   1.502       .  S
C58          C59   1.400       .  A
C58          H62   1.082       .  S
C59          C60   1.398       .  A
C59        C1038   1.481       .  S
C60          H63   1.083       .  S
C64          C65   1.406       .  A
C64          C69   1.397   1_556  A
C64        C1002   1.477   1_556  S
C65          C66   1.416       .  A
C65          H70   1.082       .  S
C66          C67   1.420       .  A
C67          C68   1.403       .  A
C67          H71   1.081       .  S
C68          C69   1.397   1_556  A
C68         C984   1.489   1_556  S
C69          H72   1.082       .  S
O73          C89   1.275       .  A
O73         Zn79   2.033       .  S
C74        C1041   1.472       .  S
C74          O90   1.275       .  A
C74          O87   1.275       .  A
O75          C88   1.276       .  A
O75         Cd82   2.090       .  S
O76          C94   1.277       .  A
O76         Cd85   2.085       .  S
O77          C91   1.275       .  A
O77         Cd81   2.081       .  S
O78          C89   1.274       .  A
O78         Cd81   2.065       .  S
Zn79         O90   2.018       .  S
Zn79         O92   2.039       .  S
Zn79         O84   1.947       .  S
O80          C91   1.278       .  A
O80         Cd85   2.089       .  S
Cd81         O83   2.084       .  S
Cd81         O84   1.994       .  S
Cd82         O86   2.085       .  S
Cd82         O95   2.088       .  S
Cd82         O84   1.997       .  S
O83          C93   1.277       .  A
O84         Cd85   2.005       .  S
Cd85         O87   2.079       .  S
O86          C93   1.276       .  A
C88         C951   1.475       .  S
C88          O92   1.277       .  A
C89         C930   1.474       .  S
C91         C912   1.479       .  S
C93        C1218   1.471       .  S
C94         C966   1.471       .  S
C94          O95   1.277       .  A
O96         C112   1.276       .  A
O96        Zn102   2.049       .  S
C97        C1074   1.474       .  S
C97         O113   1.277       .  A
C97         O110   1.273       .  A
O98         C111   1.277       .  A
O98        Cd105   2.090       .  S
O99         C117   1.276       .  A
O99        Cd108   2.084       .  S
O100        C114   1.275       .  A
O100       Cd104   2.077       .  S
O101        C112   1.276       .  A
O101       Cd104   2.077       .  S
Zn102       O113   2.041       .  S
Zn102       O115   2.036       .  S
Zn102       O107   1.959       .  S
O103        C114   1.274       .  A
O103       Cd108   2.065       .  S
Cd104       O106   2.090       .  S
Cd104       O107   2.002       .  S
Cd105       O109   2.108       .  S
Cd105       O118   2.105       .  S
Cd105       O107   2.004       .  S
O106        C116   1.277       .  A
O107       Cd108   1.998       .  S
Cd108       O110   2.067       .  S
O109        C116   1.279       .  A
C111       C1146   1.471       .  S
C111        O115   1.277       .  A
C112        C858   1.481       .  S
C114       C1257   1.471       .  S
C116        C894   1.481       .  S
C117        C879   1.479       .  S
C117        O118   1.279       .  A
C119        C120   1.408       .  A
C119        C124   1.399       .  A
C119        C822   1.480       .  S
C120        C121   1.419       .  A
C120        H125   1.080       .  S
C121        C122   1.422       .  A
C121        C132   1.520       .  S
C122        C123   1.409       .  A
C122        H126   1.077       .  S
C123        C124   1.399       .  A
C123        C843   1.499       .  S
C124        H127   1.081       .  S
C128        C129   1.397       .  A
C128        C133   1.413       .  A
C128        C786   1.487       .  S
C129        C130   1.395       .  A
C129        H134   1.082       .  S
C130        C131   1.402       .  A
C130        C804   1.487       .  S
C131        C132   1.421       .  A
C131        H135   1.079       .  S
C132        C133   1.426       .  A
C133        H136   1.080       .  S
O137        C153   1.275       .  A
O137       Zn143   2.036       .  S
C138        C750   1.477       .  S
C138        O154   1.278       .  A
C138        O151   1.271       .  A
O139        C152   1.278       .  A
O139       Cd146   2.090       .  S
O140        C158   1.275       .  A
O140       Cd149   2.075       .  S
O141        C155   1.276       .  A
O141       Cd145   2.080       .  S
O142        C153   1.276       .  A
O142       Cd145   2.082       .  S
Zn143       O154   2.061       .  S
Zn143       O156   2.035       .  S
Zn143       O148   1.961       .  S
O144        C155   1.277       .  A
O144       Cd149   2.076       .  S
Cd145       O147   2.083       .  S
Cd145       O148   2.003       .  S
Cd146       O150   2.100       .  S
Cd146       O159   2.106       .  S
Cd146       O148   2.011       .  S
O147        C157   1.277       .  A
O148       Cd149   1.987       .  S
Cd149       O151   2.050       .  S
O150        C157   1.278       .  A
C152       C1005   1.469       .  S
C152        O156   1.278       .  A
C153        C840   1.480       .  S
C155       C1185   1.476       .  S
C157        C771   1.476       .  S
C158       C1113   1.478       .  S
C158        O159   1.278       .  A
C160        C161   1.398       .  A
C160        C165   1.410       .  A
C160        C969   1.483       .  S
C161        C162   1.396       .  A
C161        H166   1.082       .  S
C162        C163   1.406       .  A
C162        C732   1.489       .  S
C163        C164   1.420       .  A
C163        H167   1.080       .  S
C164        C165   1.421       .  A
C164        C173   1.515   1_655  S
C165        H168   1.081       .  S
C169        C170   1.398       .  A
C169        C174   1.410       .  A
C169        C714   1.484       .  S
C170        C171   1.397       .  A
C170        H175   1.082       .  S
C171        C172   1.406       .  A
C171        C699   1.493       .  S
C172        C173   1.421       .  A
C172        H176   1.080       .  S
C173        C174   1.421       .  A
C174        H177   1.081       .  S
O178        C194   1.270       .  A
O178       Zn184   2.003       .  S
C179        C735   1.472       .  S
C179        O195   1.274       .  A
C179        O192   1.274       .  A
O180        C193   1.278       .  A
O180       Cd187   2.107       .  S
O181        C199   1.277       .  A
O181       Cd190   2.088       .  S
O182        C196   1.275       .  A
O182       Cd186   2.076       .  S
O183        C194   1.276       .  A
O183       Cd186   2.088       .  S
Zn184       O195   2.016       .  S
Zn184       O197   1.989       .  S
Zn184       O189   1.929       .  S
O185        C196   1.276       .  A
O185       Cd190   2.075       .  S
Cd186       O188   2.082       .  S
Cd186       O189   2.006       .  S
Cd187       O191   2.099       .  S
Cd187       O200   2.102       .  S
Cd187       O189   2.009       .  S
O188        C198   1.277       .  A
O189       Cd190   1.994       .  S
Cd190       O192   2.072       .  S
O191        C198   1.280       .  A
C193        C645   1.473       .  S
C193        O197   1.273       .  A
C194        C987   1.474       .  S
C196        C807   1.474       .  S
C198        C681   1.473       .  S
C199        C660   1.476       .  S
C199        O200   1.279       .  A
C201        C202   1.395       .  A
C201        C206   1.403       .  A
C201        C606   1.473       .  S
C202        C203   1.399   1_554  A
C202        H207   1.081       .  S
C203        C204   1.407       .  A
C203        C624   1.494       .  S
C204        C205   1.417       .  A
C204        H208   1.079       .  S
C205        C206   1.417   1_556  A
C205        C212   1.505       .  S
C206        H209   1.082       .  S
C210        C211   1.402       .  A
C210        C215   1.398   1_554  A
C210        C642   1.475       .  S
C211        C212   1.414   1_554  A
C211        H216   1.082       .  S
C212        C213   1.419       .  A
C213        C214   1.409       .  A
C213        H217   1.081       .  S
C214        C215   1.401       .  A
C214        C915   1.495       .  S
C215        H218   1.081       .  S
C219        C220   1.403       .  A
C219        C224   1.414       .  A
C219        C897   1.492       .  S
C220        C221   1.400       .  A
C220        H225   1.079       .  S
C221        C222   1.404       .  A
C221        C588   1.499       .  S
C222        C223   1.416       .  A
C222        H226   1.079       .  S
C223        C224   1.422       .  A
C223        C230   1.511       .  S
C224        H227   1.082       .  S
C228        C229   1.412       .  A
C228        C233   1.399   1_556  A
C228        C552   1.482   1_556  S
C229        C230   1.419       .  A
C229        H234   1.082       .  S
C230        C231   1.421       .  A
C231        C232   1.404       .  A
C231        H235   1.082       .  S
C232        C233   1.395   1_556  A
C232        C570   1.488   1_556  S
C233        H236   1.083       .  S
O237        C253   1.272       .  A
O237       Zn243   2.022       .  S
C238        C591   1.476       .  S
C238        O254   1.278       .  A
C238        O251   1.277       .  A
O239        C252   1.278       .  A
O239       Cd246   2.109       .  S
O240        C258   1.278       .  A
O240       Cd249   2.090       .  S
O241        C255   1.273       .  A
O241       Cd245   2.063       .  S
O242        C253   1.274       .  A
O242       Cd245   2.074       .  S
Zn243       O254   2.024       .  S
Zn243       O256   2.037       .  S
Zn243       O248   1.939       .  S
O244        C255   1.277       .  A
O244       Cd249   2.094       .  S
Cd245       O247   2.076       .  S
Cd245       O248   1.997       .  S
Cd246       O250   2.104       .  S
Cd246       O259   2.100       .  S
Cd246       O248   2.009       .  S
O247        C257   1.276       .  A
O248       Cd249   2.012       .  S
Cd249       O251   2.085       .  S
O250        C257   1.280       .  A
C252        C537   1.483       .  S
C252        O256   1.277       .  A
C253       C1203   1.475       .  S
C255        C627   1.476       .  S
C257        C519   1.473       .  S
C258        C717   1.476       .  S
C258        O259   1.279       .  A
C260        C261   1.395       .  A
C260        C265   1.407       .  A
C260        C501   1.481       .  S
C261        C262   1.396   1_545  A
C261        H266   1.080       .  S
C262        C263   1.409       .  A
C262        C483   1.494       .  S
C263        C264   1.421   1_565  A
C263        H267   1.080       .  S
C264        C265   1.421       .  A
C264        C271   1.513       .  S
C265        H268   1.081       .  S
C269        C270   1.407       .  A
C269        C274   1.398       .  A
C269        C534   1.483       .  S
C270        C271   1.420       .  A
C270        H275   1.082       .  S
C271        C272   1.420   1_545  A
C272        C273   1.410       .  A
C272        H276   1.078       .  S
C273        C274   1.403   1_565  A
C273        C861   1.501       .  S
C274        H277   1.080       .  S
O278        C294   1.271       .  A
O278       Zn284   2.005       .  S
C279        C696   1.478       .  S
C279        O295   1.275       .  A
C279        O292   1.275       .  A
O280        C293   1.278       .  A
O280       Cd287   2.100       .  S
O281        C299   1.277       .  A
O281       Cd290   2.081       .  S
O282        C296   1.275       .  A
O282       Cd286   2.071       .  S
O283        C294   1.275       .  A
O283       Cd286   2.083       .  S
Zn284       O295   2.032       .  S
Zn284       O297   1.993       .  S
Zn284       O289   1.936       .  S
O285        C296   1.276       .  A
O285       Cd290   2.077       .  S
Cd286       O288   2.082       .  S
Cd286       O289   2.008       .  S
Cd287       O291   2.106       .  S
Cd287       O300   2.106       .  S
Cd287       O289   2.017       .  S
O288        C298   1.277       .  A
O289       Cd290   1.996       .  S
Cd290       O292   2.077       .  S
O291        C298   1.279       .  A
C293        C609   1.471       .  S
C293        O297   1.273       .  A
C294        C573   1.474       .  S
C296        C465   1.474       .  S
C298        C498   1.476       .  S
C299        C789   1.477       .  S
C299        O300   1.279       .  A
C301        C302   1.398       .  A
C301        C306   1.414       .  A
C301        C768   1.485       .  S
C302        C303   1.393       .  A
C302        H307   1.084       .  S
C303        C304   1.400       .  A
C303        C444   1.483       .  S
C304        C305   1.419       .  A
C304        H308   1.080       .  S
C305        C306   1.425       .  A
C305        C314   1.517       .  S
C306        H309   1.081       .  S
C310        C311   1.397       .  A
C310        C315   1.411   1_545  A
C310        C663   1.481       .  S
C311        C312   1.394       .  A
C311        H316   1.083       .  S
C312        C313   1.404   1_545  A
C312        C462   1.488       .  S
C313        C314   1.422       .  A
C313        H317   1.079       .  S
C314        C315   1.421       .  A
C315        H318   1.081       .  S
O319        C335   1.275       .  A
O319       Zn325   2.031       .  S
C320        C480   1.473       .  S
C320        O336   1.277       .  A
C320        O333   1.270       .  A
O321        C334   1.279       .  A
O321       Cd328   2.097       .  S
O322        C340   1.273       .  A
O322       Cd331   2.045       .  S
O323        C337   1.275       .  A
O323       Cd327   2.076       .  S
O324        C335   1.277       .  A
O324       Cd327   2.081       .  S
Zn325       O336   2.049       .  S
Zn325       O338   2.037       .  S
Zn325       O330   1.956       .  S
O326        C337   1.273       .  A
O326       Cd331   2.061       .  S
Cd327       O329   2.087       .  S
Cd327       O330   1.994       .  S
Cd328       O332   2.099       .  S
Cd328       O341   2.120       .  S
Cd328       O330   2.008       .  S
O329        C339   1.278       .  A
O330       Cd331   1.979       .  S
Cd331       O333   2.045       .  S
O332        C339   1.279       .  A
C334        C555   1.474       .  S
C334        O338   1.278       .  A
C335        C447   1.477       .  S
C337       C1128   1.471       .  S
C339        C825   1.474       .  S
C340       C1056   1.478       .  S
C340        O341   1.280       .  A
C342        C343   1.399       .  A
C342        C347   1.416       .  A
C342        C516   1.487       .  S
C343        C344   1.397       .  A
C343        H348   1.082       .  S
C344        C345   1.405       .  A
C344        C933   1.493       .  S
C345        C346   1.419       .  A
C345        H349   1.081       .  S
C346        C347   1.423       .  A
C346        C353   1.515       .  S
C347        H350   1.082       .  S
C351        C352   1.417       .  A
C351        C356   1.399       .  A
C351        C876   1.492       .  S
C352        C353   1.425       .  A
C352        H357   1.082       .  S
C353        C354   1.421       .  A
C354        C355   1.403       .  A
C354        H358   1.082       .  S
C355        C356   1.395       .  A
C355        C426   1.488       .  S
C356        H359   1.082       .  S
C360        C361   1.397       .  A
C360        C365   1.412       .  A
C360        C678   1.483       .  S
C361        C362   1.396       .  A
C361        H366   1.082       .  S
C362        C363   1.407       .  A
C362        C753   1.491       .  S
C363        C364   1.419       .  A
C363        H367   1.081       .  S
C364        C365   1.421       .  A
C364        C371   1.512       .  S
C365        H368   1.082       .  S
C369        C370   1.412       .  A
C369        C374   1.397       .  A
C369        C948   1.486       .  S
C370        C371   1.422       .  A
C370        H375   1.082       .  S
C371        C372   1.421       .  A
C372        C373   1.405       .  A
C372        H376   1.081       .  S
C373        C374   1.397       .  A
C373        C408   1.490       .  S
C374        H377   1.082       .  S
O378        C394   1.275       .  A
O378       Zn384   2.036       .  S
C379        C429   1.475       .  S
C379        O395   1.278       .  A
C379        O392   1.273       .  A
O380        C393   1.276       .  A
O380       Cd387   2.081       .  S
O381        C399   1.275       .  A
O381       Cd390   2.073       .  S
O382        C396   1.276       .  A
O382       Cd386   2.078       .  S
O383        C394   1.276       .  A
O383       Cd386   2.081       .  S
Zn384       O395   2.040       .  S
Zn384       O397   2.044       .  S
Zn384       O389   1.947       .  S
O385        C396   1.275       .  A
O385       Cd390   2.067       .  S
Cd386       O388   2.072       .  S
Cd386       O389   1.997       .  S
Cd387       O391   2.085       .  S
Cd387       O400   2.088       .  S
Cd387       O389   1.995       .  S
O388        C398   1.275       .  A
O389       Cd390   1.995       .  S
Cd390       O392   2.064       .  S
O391        C398   1.276       .  A
C393       C1239   1.472       .  S
C393        O397   1.278       .  A
C394       C1095   1.479       .  S
C396        C411   1.472       .  S
C398       C1164   1.467       .  S
C399       C1023   1.468       .  S
C399        O400   1.276       .  A
C401        C406   1.383       .  A
C401        C402   1.407       .  A
C401        N407   1.349       .  A
C402        C403   1.407       .  A
C402        H413   1.082       .  S
C403        C412   1.380       .  A
C403        C404   1.384       .  A
C404        C405   1.400       .  A
C404        N410   1.342       .  A
C405        C406   1.400       .  A
C405        H414   1.083       .  S
C406        C409   1.371       .  A
N407        C408   1.360       .  A
N407        H417   1.044       .  S
C408        C409   1.399       .  A
C409        H415   1.082       .  S
N410        C411   1.355       .  A
N410        H418   1.045       .  S
C411        C412   1.397       .  A
C412        H416   1.082       .  S
C419        C424   1.383       .  A
C419        C420   1.403       .  A
C419        N425   1.340       .  A
C420        C421   1.400       .  A
C420        H431   1.082       .  S
C421        C430   1.379       .  A
C421        C422   1.383       .  A
C422        C423   1.408       .  A
C422        N428   1.345       .  A
C423        C424   1.407       .  A
C423        H432   1.082       .  S
C424        C427   1.386       .  A
N425        C426   1.358       .  A
N425        H435   1.044       .  S
C426        C427   1.400       .  A
C427        H433   1.082       .  S
N428        C429   1.358       .  A
N428        H436   1.045       .  S
C429        C430   1.395       .  A
C430        H434   1.082       .  S
C437        C442   1.384       .  A
C437        C438   1.401       .  A
C437        N443   1.341   1_455  A
C438        C439   1.400       .  A
C438        H449   1.082       .  S
C439        C448   1.376       .  A
C439        C440   1.384       .  A
C440        C441   1.408       .  A
C440        N446   1.347       .  A
C441        C442   1.407       .  A
C441        H450   1.082       .  S
C442        C445   1.383       .  A
N443        C444   1.356       .  A
N443        H453   1.044       .  S
C444        C445   1.399   1_655  A
C445        H451   1.082       .  S
N446        C447   1.359       .  A
N446        H454   1.045       .  S
C447        C448   1.394       .  A
C448        H452   1.082       .  S
C455        C460   1.383       .  A
C455        C456   1.403       .  A
C455        N461   1.340   1_455  A
C456        C457   1.401       .  A
C456        H467   1.082       .  S
C457        C466   1.378       .  A
C457        C458   1.384       .  A
C458        C459   1.406       .  A
C458        N464   1.344       .  A
C459        C460   1.405       .  A
C459        H468   1.082       .  S
C460        C463   1.383       .  A
N461        C462   1.358       .  A
N461        H471   1.044       .  S
C462        C463   1.400   1_655  A
C463        H469   1.082   1_545  S
N464        C465   1.357       .  A
N464        H472   1.045       .  S
C465        C466   1.395       .  A
C466        H470   1.082       .  S
C473        C478   1.384       .  A
C473        C474   1.403       .  A
C473        N479   1.346       .  A
C474        C475   1.405       .  A
C474        H485   1.082       .  S
C475        C484   1.373       .  A
C475        C476   1.382       .  A
C476        C477   1.403       .  A
C476        N482   1.346       .  A
C477        C478   1.403       .  A
C477        H486   1.082       .  S
C478        C481   1.374       .  A
N479        C480   1.356       .  A
N479        H489   1.045       .  S
C480        C481   1.396       .  A
C481        H487   1.083       .  S
N482        C483   1.358       .  A
N482        H490   1.044       .  S
C483        C484   1.404       .  A
C484        H488   1.081       .  S
C491        C496   1.384       .  A
C491        C492   1.408       .  A
C491        N497   1.347       .  A
C492        C493   1.407       .  A
C492        H503   1.082       .  S
C493        C502   1.387       .  A
C493        C494   1.384       .  A
C494        C495   1.405       .  A
C494        N500   1.341       .  A
C495        C496   1.402       .  A
C495        H504   1.083       .  S
C496        C499   1.381       .  A
N497        C498   1.356       .  A
N497        H507   1.045       .  S
C498        C499   1.395       .  A
C499        H505   1.083       .  S
N500        C501   1.358       .  A
N500        H508   1.045       .  S
C501        C502   1.398       .  A
C502        H506   1.082       .  S
C509        C514   1.383       .  A
C509        C510   1.409       .  A
C509        N515   1.351       .  A
C510        C511   1.408       .  A
C510        H521   1.082       .  S
C511        C520   1.382       .  A
C511        C512   1.384       .  A
C512        C513   1.405       .  A
C512        N518   1.347       .  A
C513        C514   1.406       .  A
C513        H522   1.083       .  S
C514        C517   1.377       .  A
N515        C516   1.359       .  A
N515        H525   1.045       .  S
C516        C517   1.400       .  A
C517        H523   1.083       .  S
N518        C519   1.356       .  A
N518        H526   1.045       .  S
C519        C520   1.395       .  A
C520        H524   1.082       .  S
C527        C532   1.384       .  A
C527        C528   1.403       .  A
C527        N533   1.342       .  A
C528        C529   1.401       .  A
C528        H539   1.082       .  S
C529        C538   1.378       .  A
C529        C530   1.383       .  A
C530        C531   1.413       .  A
C530        N536   1.353       .  A
C531        C532   1.413       .  A
C531        H540   1.082       .  S
C532        C535   1.390       .  A
N533        C534   1.355       .  A
N533        H543   1.045       .  S
C534        C535   1.401       .  A
C535        H541   1.082       .  S
N536        C537   1.360       .  A
N536        H544   1.044       .  S
C537        C538   1.394       .  A
C538        H542   1.082       .  S
C545        C550   1.384       .  A
C545        C546   1.404       .  A
C545        N551   1.342       .  A
C546        C547   1.402       .  A
C546        H557   1.083       .  S
C547        C556   1.380       .  A
C547        C548   1.384       .  A
C548        C549   1.409       .  A
C548        N554   1.348       .  A
C549        C550   1.408       .  A
C549        H558   1.082       .  S
C550        C553   1.387       .  A
N551        C552   1.358       .  A
N551        H561   1.045       .  S
C552        C553   1.398       .  A
C553        H559   1.082       .  S
N554        C555   1.357       .  A
N554        H562   1.045       .  S
C555        C556   1.394       .  A
C556        H560   1.082       .  S
C563        C568   1.383       .  A
C563        C564   1.405       .  A
C563        N569   1.342       .  A
C564        C565   1.402   1_565  A
C564        H575   1.082       .  S
C565        C574   1.381       .  A
C565        C566   1.384       .  A
C566        C567   1.406       .  A
C566        N572   1.343       .  A
C567        C568   1.404   1_545  A
C567        H576   1.082       .  S
C568        C571   1.383       .  A
N569        C570   1.359       .  A
N569        H579   1.044       .  S
C570        C571   1.399       .  A
C571        H577   1.082   1_554  S
N572        C573   1.357       .  A
N572        H580   1.045       .  S
C573        C574   1.396       .  A
C574        H578   1.082       .  S
C581        C586   1.381       .  A
C581        C582   1.401       .  A
C581        N587   1.341       .  A
C582        C583   1.399   1_565  A
C582        H593   1.082       .  S
C583        C592   1.374       .  A
C583        C584   1.384       .  A
C584        C585   1.409       .  A
C584        N590   1.348       .  A
C585        C586   1.408   1_545  A
C585        H594   1.082       .  S
C586        C589   1.382       .  A
N587        C588   1.360       .  A
N587        H597   1.043       .  S
C588        C589   1.405       .  A
C589        H595   1.081       .  S
N590        C591   1.359       .  A
N590        H598   1.045       .  S
C591        C592   1.393       .  A
C592        H596   1.082       .  S
C599        C604   1.384       .  A
C599        C600   1.399       .  A
C599        N605   1.339       .  A
C600        C601   1.397       .  A
C600        H611   1.083       .  S
C601        C610   1.370       .  A
C601        C602   1.384       .  A
C602        C603   1.409       .  A
C602        N608   1.350       .  A
C603        C604   1.410       .  A
C603        H612   1.082       .  S
C604        C607   1.385       .  A
N605        C606   1.354       .  A
N605        H615   1.045       .  S
C606        C607   1.400       .  A
C607        H613   1.082       .  S
N608        C609   1.358       .  A
N608        H616   1.044       .  S
C609        C610   1.392       .  A
C610        H614   1.083       .  S
C617        C622   1.382       .  A
C617        C618   1.403       .  A
C617        N623   1.345       .  A
C618        C619   1.404       .  A
C618        H629   1.082       .  S
C619        C628   1.376       .  A
C619        C620   1.384       .  A
C620        C621   1.403       .  A
C620        N626   1.346       .  A
C621        C622   1.404       .  A
C621        H630   1.082       .  S
C622        C625   1.374       .  A
N623        C624   1.359       .  A
N623        H633   1.044       .  S
C624        C625   1.403       .  A
C625        H631   1.081       .  S
N626        C627   1.356       .  A
N626        H634   1.045       .  S
C627        C628   1.397       .  A
C628        H632   1.082       .  S
C635        C640   1.385       .  A
C635        C636   1.397       .  A
C635        N641   1.339       .  A
C636        C637   1.396       .  A
C636        H647   1.083       .  S
C637        C646   1.367       .  A
C637        C638   1.384       .  A
C638        C639   1.410       .  A
C638        N644   1.352       .  A
C639        C640   1.412       .  A
C639        H648   1.082       .  S
C640        C643   1.386       .  A
N641        C642   1.353       .  A
N641        H651   1.045       .  S
C642        C643   1.399       .  A
C643        H649   1.082       .  S
N644        C645   1.359       .  A
N644        H652   1.044       .  S
C645        C646   1.391       .  A
C646        H650   1.083       .  S
C653        C658   1.384       .  A
C653        C654   1.405       .  A
C653        N659   1.347       .  A
C654        C655   1.405       .  A
C654        H665   1.082       .  S
C655        C664   1.377       .  A
C655        C656   1.383       .  A
C656        C657   1.408       .  A
C656        N662   1.349       .  A
C657        C658   1.408       .  A
C657        H666   1.082       .  S
C658        C661   1.383       .  A
N659        C660   1.356       .  A
N659        H669   1.045       .  S
C660        C661   1.396       .  A
C661        H667   1.082       .  S
N662        C663   1.358       .  A
N662        H670   1.045       .  S
C663        C664   1.399       .  A
C664        H668   1.083       .  S
C671        C676   1.383       .  A
C671        C672   1.408       .  A
C671        N677   1.349       .  A
C672        C673   1.407       .  A
C672        H683   1.082       .  S
C673        C682   1.382       .  A
C673        C674   1.384       .  A
C674        C675   1.404       .  A
C674        N680   1.347       .  A
C675        C676   1.406       .  A
C675        H684   1.082       .  S
C676        C679   1.377       .  A
N677        C678   1.358       .  A
N677        H687   1.045       .  S
C678        C679   1.399       .  A
C679        H685   1.083       .  S
N680        C681   1.356       .  A
N680        H688   1.045       .  S
C681        C682   1.395       .  A
C682        H686   1.082       .  S
C689        C694   1.384       .  A
C689        C690   1.404   1_554  A
C689        N695   1.346       .  A
C690        C691   1.404       .  A
C690        H701   1.082       .  S
C691        C700   1.376       .  A
C691        C692   1.382       .  A
C692        C693   1.406   1_556  A
C692        N698   1.347       .  A
C693        C694   1.406       .  A
C693        H702   1.082       .  S
C694        C697   1.380       .  A
N695        C696   1.357       .  A
N695        H705   1.045       .  S
C696        C697   1.398       .  A
C697        H703   1.082       .  S
N698        C699   1.359       .  A
N698        H706   1.044       .  S
C699        C700   1.401       .  A
C700        H704   1.082       .  S
C707        C712   1.384       .  A
C707        C708   1.409       .  A
C707        N713   1.350       .  A
C708        C709   1.409       .  A
C708        H719   1.082       .  S
C709        C718   1.384       .  A
C709        C710   1.384       .  A
C710        C711   1.403       .  A
C710        N716   1.346       .  A
C711        C712   1.404       .  A
C711        H720   1.082       .  S
C712        C715   1.376       .  A
N713        C714   1.359       .  A
N713        H723   1.045       .  S
C714        C715   1.398       .  A
C715        H721   1.083       .  S
N716        C717   1.355       .  A
N716        H724   1.045       .  S
C717        C718   1.397       .  A
C718        H722   1.082       .  S
C725        C730   1.383       .  A
C725        C726   1.403       .  A
C725        N731   1.341       .  A
C726        C727   1.401   1_556  A
C726        H737   1.082       .  S
C727        C736   1.378       .  A
C727        C728   1.384       .  A
C728        C729   1.405       .  A
C728        N734   1.344       .  A
C729        C730   1.404   1_554  A
C729        H738   1.082       .  S
C730        C733   1.382       .  A
N731        C732   1.359       .  A
N731        H741   1.044       .  S
C732        C733   1.399       .  A
C733        H739   1.082       .  S
N734        C735   1.356       .  A
N734        H742   1.045       .  S
C735        C736   1.395       .  A
C736        H740   1.083       .  S
C743        C748   1.383       .  A
C743        C744   1.404       .  A
C743        N749   1.341       .  A
C744        C745   1.402       .  A
C744        H755   1.082       .  S
C745        C754   1.381       .  A
C745        C746   1.382       .  A
C746        C747   1.407       .  A
C746        N752   1.343       .  A
C747        C748   1.405       .  A
C747        H756   1.082       .  S
C748        C751   1.385       .  A
N749        C750   1.357       .  A
N749        H759   1.045       .  S
C750        C751   1.398       .  A
C751        H757   1.082       .  S
N752        C753   1.361       .  A
N752        H760   1.044       .  S
C753        C754   1.398       .  A
C754        H758   1.082       .  S
C761        C766   1.384       .  A
C761        C762   1.404       .  A
C761        N767   1.341       .  A
C762        C763   1.401       .  A
C762        H773   1.083       .  S
C763        C772   1.379       .  A
C763        C764   1.384       .  A
C764        C765   1.411       .  A
C764        N770   1.350       .  A
C765        C766   1.411       .  A
C765        H774   1.082       .  S
C766        C769   1.390       .  A
N767        C768   1.357       .  A
N767        H777   1.045       .  S
C768        C769   1.401       .  A
C769        H775   1.082       .  S
N770        C771   1.359       .  A
N770        H778   1.045       .  S
C771        C772   1.393       .  A
C772        H776   1.082       .  S
C779        C784   1.383       .  A
C779        C780   1.403       .  A
C779        N785   1.341       .  A
C780        C781   1.401       .  A
C780        H791   1.083       .  S
C781        C790   1.379       .  A
C781        C782   1.383       .  A
C782        C783   1.412       .  A
C782        N788   1.350       .  A
C783        C784   1.411       .  A
C783        H792   1.082       .  S
C784        C787   1.390       .  A
N785        C786   1.358       .  A
N785        H795   1.045       .  S
C786        C787   1.401       .  A
C787        H793   1.082       .  S
N788        C789   1.359       .  A
N788        H796   1.045       .  S
C789        C790   1.393       .  A
C790        H794   1.082       .  S
C797        C802   1.383       .  A
C797        C798   1.408       .  A
C797        N803   1.348       .  A
C798        C799   1.408       .  A
C798        H809   1.082       .  S
C799        C808   1.382       .  A
C799        C800   1.385       .  A
C800        C801   1.400       .  A
C800        N806   1.341       .  A
C801        C802   1.399       .  A
C801        H810   1.082       .  S
C802        C805   1.372   1_655  A
N803        C804   1.360   1_655  A
N803        H813   1.044       .  S
C804        C805   1.397       .  A
C805        H811   1.082       .  S
N806        C807   1.354       .  A
N806        H814   1.045       .  S
C807        C808   1.399       .  A
C808        H812   1.082       .  S
C815        C820   1.384       .  A
C815        C816   1.408       .  A
C815        N821   1.348       .  A
C816        C817   1.407       .  A
C816        H827   1.082       .  S
C817        C826   1.382       .  A
C817        C818   1.384       .  A
C818        C819   1.405       .  A
C818        N824   1.347       .  A
C819        C820   1.405       .  A
C819        H828   1.082       .  S
C820        C823   1.379       .  A
N821        C822   1.357       .  A
N821        H831   1.045       .  S
C822        C823   1.397       .  A
C823        H829   1.083       .  S
N824        C825   1.355       .  A
N824        H832   1.045       .  S
C825        C826   1.396       .  A
C826        H830   1.082       .  S
C833        C838   1.384       .  A
C833        C834   1.407       .  A
C833        N839   1.346       .  A
C834        C835   1.406       .  A
C834        H845   1.082       .  S
C835        C844   1.382       .  A
C835        C836   1.381       .  A
C836        C837   1.406       .  A
C836        N842   1.344   1_655  A
C837        C838   1.404       .  A
C837        H846   1.082       .  S
C838        C841   1.381       .  A
N839        C840   1.358       .  A
N839        H849   1.045       .  S
C840        C841   1.397       .  A
C841        H847   1.082       .  S
N842        C843   1.361       .  A
N842        H850   1.043       .  S
C843        C844   1.402   1_455  A
C844        H848   1.082       .  S
C851        C856   1.383       .  A
C851        C852   1.410       .  A
C851        N857   1.349       .  A
C852        C853   1.410       .  A
C852        H863   1.082       .  S
C853        C862   1.386       .  A
C853        C854   1.381       .  A
C854        C855   1.402       .  A
C854        N860   1.341       .  A
C855        C856   1.400       .  A
C855        H864   1.082       .  S
C856        C859   1.377       .  A
N857        C858   1.360       .  A
N857        H867   1.044       .  S
C858        C859   1.395       .  A
C859        H865   1.082       .  S
N860        C861   1.361       .  A
N860        H868   1.043       .  S
C861        C862   1.405       .  A
C862        H866   1.081       .  S
C869        C874   1.383       .  A
C869        C870   1.411       .  A
C869        N875   1.353       .  A
C870        C871   1.411       .  A
C870        H881   1.082       .  S
C871        C880   1.387       .  A
C871        C872   1.384       .  A
C872        C873   1.404       .  A
C872        N878   1.346       .  A
C873        C874   1.405       .  A
C873        H882   1.083       .  S
C874        C877   1.376       .  A
N875        C876   1.360       .  A
N875        H885   1.044       .  S
C876        C877   1.401       .  A
C877        H883   1.083       .  S
N878        C879   1.355       .  A
N878        H886   1.045       .  S
C879        C880   1.399       .  A
C880        H884   1.082       .  S
C887        C892   1.384       .  A
C887        C888   1.403       .  A
C887        N893   1.346       .  A
C888        C889   1.404       .  A
C888        H899   1.083       .  S
C889        C898   1.375       .  A
C889        C890   1.383       .  A
C890        C891   1.413       .  A
C890        N896   1.354       .  A
C891        C892   1.413       .  A
C891        H900   1.082       .  S
C892        C895   1.388       .  A
N893        C894   1.355       .  A
N893        H903   1.045       .  S
C894        C895   1.400       .  A
C895        H901   1.082       .  S
N896        C897   1.361       .  A
N896        H904   1.045       .  S
C897        C898   1.398       .  A
C898        H902   1.083       .  S
C905        C910   1.384       .  A
C905        C906   1.408       .  A
C905        N911   1.346       .  A
C906        C907   1.407       .  A
C906        H917   1.082       .  S
C907        C916   1.384       .  A
C907        C908   1.382       .  A
C908        C909   1.404       .  A
C908        N914   1.342       .  A
C909        C910   1.402       .  A
C909        H918   1.082       .  S
C910        C913   1.380       .  A
N911        C912   1.358       .  A
N911        H921   1.045       .  S
C912        C913   1.396       .  A
C913        H919   1.082       .  S
N914        C915   1.360       .  A
N914        H922   1.043       .  S
C915        C916   1.402       .  A
C916        H920   1.082       .  S
C923        C928   1.384       .  A
C923        C924   1.401       .  A
C923        N929   1.341       .  A
C924        C925   1.400       .  A
C924        H935   1.083       .  S
C925        C934   1.374       .  A
C925        C926   1.382       .  A
C926        C927   1.408       .  A
C926        N932   1.347       .  A
C927        C928   1.407       .  A
C927        H936   1.082       .  S
C928        C931   1.383       .  A
N929        C930   1.355       .  A
N929        H939   1.045       .  S
C930        C931   1.399       .  A
C931        H937   1.082       .  S
N932        C933   1.360       .  A
N932        H940   1.044       .  S
C933        C934   1.400       .  A
C934        H938   1.082       .  S
C941        C946   1.383       .  A
C941        C942   1.403       .  A
C941        N947   1.341       .  A
C942        C943   1.400       .  A
C942        H953   1.083       .  S
C943        C952   1.379       .  A
C943        C944   1.384       .  A
C944        C945   1.411       .  A
C944        N950   1.349       .  A
C945        C946   1.410       .  A
C945        H954   1.082       .  S
C946        C949   1.390       .  A
N947        C948   1.358       .  A
N947        H957   1.045       .  S
C948        C949   1.400       .  A
C949        H955   1.082       .  S
N950        C951   1.358       .  A
N950        H958   1.045       .  S
C951        C952   1.392       .  A
C952        H956   1.082       .  S
C959        C964   1.385       .  A
C959        C960   1.402       .  A
C959        N965   1.345       .  A
C960        C961   1.403       .  A
C960        H971   1.082       .  S
C961        C970   1.376       .  A
C961        C962   1.384       .  A
C962        C963   1.409       .  A
C962        N968   1.350       .  A
C963        C964   1.408       .  A
C963        H972   1.082       .  S
C964        C967   1.383       .  A
N965        C966   1.354       .  A
N965        H975   1.045       .  S
C966        C967   1.396       .  A
C967        H973   1.082       .  S
N968        C969   1.358       .  A
N968        H976   1.045       .  S
C969        C970   1.398       .  A
C970        H974   1.083       .  S
C977        C982   1.383       .  A
C977        C978   1.407       .  A
C977        N983   1.349       .  A
C978        C979   1.408       .  A
C978        H989   1.082       .  S
C979        C988   1.380       .  A
C979        C980   1.385       .  A
C980        C981   1.400       .  A
C980        N986   1.344       .  A
C981        C982   1.400       .  A
C981        H990   1.082       .  S
C982        C985   1.370       .  A
N983        C984   1.360       .  A
N983        H993   1.044   1_554  S
C984        C985   1.398       .  A
C985        H991   1.082       .  S
N986        C987   1.354       .  A
N986        H994   1.045       .  S
C987        C988   1.399       .  A
C988        H992   1.082       .  S
C995       C1000   1.384       .  A
C995        C996   1.408       .  A
C995       N1001   1.348       .  A
C996        C997   1.407       .  A
C996       H1007   1.082       .  S
C997       C1006   1.382       .  A
C997        C998   1.385       .  A
C998        C999   1.401       .  A
C998       N1004   1.344       .  A
C999       C1000   1.402       .  A
C999       H1008   1.083       .  S
C1000      C1003   1.373       .  A
N1001      C1002   1.357       .  A
N1001      H1011   1.045       .  S
C1002      C1003   1.396       .  A
C1003      H1009   1.083       .  S
N1004      C1005   1.353       .  A
N1004      H1012   1.045       .  S
C1005      C1006   1.396       .  A
C1006      H1010   1.082       .  S
C1013      C1018   1.384       .  A
C1013      C1014   1.407       .  A
C1013      N1019   1.348       .  A
C1014      C1015   1.406       .  A
C1014      H1025   1.082       .  S
C1015      C1024   1.382       .  A
C1015      C1016   1.385       .  A
C1016      C1017   1.402       .  A
C1016      N1022   1.344       .  A
C1017      C1018   1.402       .  A
C1017      H1026   1.082       .  S
C1018      C1021   1.375       .  A
N1019      C1020   1.357       .  A
N1019      H1029   1.045       .  S
C1020      C1021   1.396       .  A
C1021      H1027   1.083       .  S
N1022      C1023   1.354       .  A
N1022      H1030   1.045       .  S
C1023      C1024   1.395       .  A
C1024      H1028   1.082       .  S
C1031      C1036   1.383       .  A
C1031      C1032   1.406       .  A
C1031      N1037   1.344       .  A
C1032      C1033   1.405       .  A
C1032      H1043   1.082       .  S
C1033      C1042   1.382       .  A
C1033      C1034   1.384       .  A
C1034      C1035   1.401       .  A
C1034      N1040   1.341       .  A
C1035      C1036   1.399       .  A
C1035      H1044   1.082       .  S
C1036      C1039   1.374       .  A
N1037      C1038   1.358       .  A
N1037      H1047   1.044       .  S
C1038      C1039   1.396       .  A
C1039      H1045   1.082       .  S
N1040      C1041   1.354       .  A
N1040      H1048   1.045       .  S
C1041      C1042   1.398       .  A
C1042      H1046   1.082       .  S
C1049      C1054   1.384       .  A
C1049      C1050   1.412       .  A
C1049      N1055   1.354       .  A
C1050      C1051   1.413       .  A
C1050      H1061   1.082       .  S
C1051      C1060   1.388       .  A
C1051      C1052   1.384       .  A
C1052      C1053   1.400       .  A
C1052      N1058   1.342       .  A
C1053      C1054   1.399       .  A
C1053      H1062   1.083       .  S
C1054      C1057   1.371       .  A
N1055      C1056   1.359       .  A
N1055      H1065   1.044       .  S
C1056      C1057   1.393       .  A
C1057      H1063   1.083       .  S
N1058      C1059   1.355       .  A
N1058      H1066   1.045       .  S
C1059      C1060   1.401       .  A
C1060      H1064   1.082       .  S
C1067      C1072   1.384       .  A
C1067      C1068   1.405       .  A
C1067      N1073   1.343       .  A
C1068      C1069   1.403       .  A
C1068      H1079   1.082       .  S
C1069      C1078   1.379       .  A
C1069      C1070   1.383       .  A
C1070      C1071   1.404       .  A
C1070      N1076   1.342       .  A
C1071      C1072   1.402       .  A
C1071      H1080   1.082       .  S
C1072      C1075   1.380       .  A
N1073      C1074   1.357       .  A
N1073      H1083   1.045       .  S
C1074      C1075   1.395       .  A
C1075      H1081   1.082       .  S
N1076      C1077   1.359       .  A
N1076      H1084   1.044       .  S
C1077      C1078   1.400       .  A
C1078      H1082   1.082       .  S
C1085      C1090   1.381       .  A
C1085      C1086   1.404       .  A
C1085      N1091   1.343       .  A
C1086      C1087   1.402       .  A
C1086      H1097   1.082       .  S
C1087      C1096   1.379       .  A
C1087      C1088   1.384       .  A
C1088      C1089   1.409       .  A
C1088      N1094   1.347       .  A
C1089      C1090   1.408       .  A
C1089      H1098   1.082       .  S
C1090      C1093   1.385       .  A
N1091      C1092   1.360       .  A
N1091      H1101   1.039       .  S
C1092      C1093   1.404       .  A
C1093      H1099   1.082       .  S
N1094      C1095   1.359       .  A
N1094      H1102   1.045       .  S
C1095      C1096   1.395       .  A
C1096      H1100   1.082       .  S
C1103      C1108   1.384       .  A
C1103      C1104   1.411       .  A
C1103      N1109   1.349       .  A
C1104      C1105   1.409       .  A
C1104      H1115   1.082       .  S
C1105      C1114   1.389       .  A
C1105      C1106   1.384       .  A
C1106      C1107   1.403       .  A
C1106      N1112   1.343       .  A
C1107      C1108   1.402       .  A
C1107      H1116   1.082       .  S
C1108      C1111   1.378       .  A
N1109      C1110   1.359       .  A
N1109      H1119   1.045       .  S
C1110      C1111   1.395       .  A
C1111      H1117   1.083       .  S
N1112      C1113   1.355       .  A
N1112      H1120   1.045       .  S
C1113      C1114   1.399       .  A
C1114      H1118   1.082       .  S
C1121      C1126   1.384       .  A
C1121      C1122   1.402       .  A
C1121      N1127   1.343       .  A
C1122      C1123   1.402       .  A
C1122      H1133   1.083       .  S
C1123      C1132   1.374       .  A
C1123      C1124   1.382       .  A
C1124      C1125   1.403       .  A
C1124      N1130   1.344       .  A
C1125      C1126   1.403       .  A
C1125      H1134   1.082       .  S
C1126      C1129   1.377       .  A
N1127      C1128   1.356       .  A
N1127      H1137   1.045       .  S
C1128      C1129   1.395       .  A
C1129      H1135   1.082       .  S
N1130      C1131   1.358       .  A
N1130      H1138   1.044       .  S
C1131      C1132   1.401       .  A
C1132      H1136   1.081       .  S
C1139      C1144   1.384       .  A
C1139      C1140   1.408       .  A
C1139      N1145   1.347       .  A
C1140      C1141   1.408       .  A
C1140      H1151   1.082       .  S
C1141      C1150   1.386       .  A
C1141      C1142   1.383       .  A
C1142      C1143   1.405       .  A
C1142      N1148   1.342       .  A
C1143      C1144   1.402       .  A
C1143      H1152   1.082       .  S
C1144      C1147   1.381       .  A
N1145      C1146   1.357       .  A
N1145      H1155   1.045       .  S
C1146      C1147   1.393       .  A
C1147      H1153   1.082       .  S
N1148      C1149   1.357       .  A
N1148      H1156   1.045       .  S
C1149      C1150   1.399       .  A
C1150      H1154   1.082       .  S
C1157      C1162   1.384       .  A
C1157      C1158   1.408       .  A
C1157      N1163   1.346       .  A
C1158      C1159   1.407       .  A
C1158      H1169   1.082       .  S
C1159      C1168   1.386       .  A
C1159      C1160   1.384       .  A
C1160      C1161   1.403       .  A
C1160      N1166   1.341       .  A
C1161      C1162   1.400       .  A
C1161      H1170   1.082       .  S
C1162      C1165   1.378       .  A
N1163      C1164   1.356       .  A
N1163      H1173   1.045       .  S
C1164      C1165   1.392       .  A
C1165      H1171   1.082       .  S
N1166      C1167   1.356       .  A
N1166      H1174   1.045       .  S
C1167      C1168   1.398       .  A
C1168      H1172   1.082       .  S
C1175      C1180   1.383       .  A
C1175      C1176   1.408       .  A
C1175      N1181   1.348       .  A
C1176      C1177   1.408       .  A
C1176      H1187   1.082       .  S
C1177      C1186   1.383       .  A
C1177      C1178   1.384       .  A
C1178      C1179   1.401       .  A
C1178      N1184   1.342       .  A
C1179      C1180   1.401       .  A
C1179      H1188   1.082       .  S
C1180      C1183   1.373       .  A
N1181      C1182   1.360       .  A
N1181      H1191   1.044       .  S
C1182      C1183   1.398       .  A
C1183      H1189   1.082       .  S
N1184      C1185   1.355       .  A
N1184      H1192   1.045       .  S
C1185      C1186   1.399       .  A
C1186      H1190   1.082       .  S
C1193      C1198   1.383       .  A
C1193      C1194   1.402       .  A
C1193      N1199   1.341       .  A
C1194      C1195   1.401       .  A
C1194      H1205   1.082       .  S
C1195      C1204   1.377       .  A
C1195      C1196   1.384       .  A
C1196      C1197   1.407       .  A
C1196      N1202   1.346       .  A
C1197      C1198   1.406       .  A
C1197      H1206   1.082       .  S
C1198      C1201   1.383       .  A
N1199      C1200   1.357       .  A
N1199      H1209   1.044       .  S
C1200      C1201   1.400       .  A
C1201      H1207   1.082   1_545  S
N1202      C1203   1.358       .  A
N1202      H1210   1.045       .  S
C1203      C1204   1.394       .  A
C1204      H1208   1.082       .  S
C1211      C1216   1.385       .  A
C1211      C1212   1.401       .  A
C1211      N1217   1.344       .  A
C1212      C1213   1.402       .  A
C1212      H1223   1.083       .  S
C1213      C1222   1.374       .  A
C1213      C1214   1.384       .  A
C1214      C1215   1.410       .  A
C1214      N1220   1.351       .  A
C1215      C1216   1.409       .  A
C1215      H1224   1.082       .  S
C1216      C1219   1.384       .  A
N1217      C1218   1.353       .  A
N1217      H1227   1.045       .  S
C1218      C1219   1.397       .  A
C1219      H1225   1.082       .  S
N1220      C1221   1.359       .  A
N1220      H1228   1.045       .  S
C1221      C1222   1.398       .  A
C1222      H1226   1.083       .  S
C1229      C1234   1.384       .  A
C1229      C1230   1.410       .  A
C1229      N1235   1.351       .  A
C1230      C1231   1.409       .  A
C1230      H1241   1.082       .  S
C1231      C1240   1.384       .  A
C1231      C1232   1.385       .  A
C1232      C1233   1.401       .  A
C1232      N1238   1.344       .  A
C1233      C1234   1.403       .  A
C1233      H1242   1.083       .  S
C1234      C1237   1.373       .  A
N1235      C1236   1.359       .  A
N1235      H1245   1.045       .  S
C1236      C1237   1.399       .  A
C1237      H1243   1.083       .  S
N1238      C1239   1.353       .  A
N1238      H1246   1.045       .  S
C1239      C1240   1.397       .  A
C1240      H1244   1.082       .  S
C1247      C1252   1.383       .  A
C1247      C1248   1.407       .  A
C1247      N1253   1.348       .  A
C1248      C1249   1.407       .  A
C1248      H1259   1.082       .  S
C1249      C1258   1.381       .  A
C1249      C1250   1.385       .  A
C1250      C1251   1.399       .  A
C1250      N1256   1.341       .  A
C1251      C1252   1.399       .  A
C1251      H1260   1.083       .  S
C1252      C1255   1.370       .  A
N1253      C1254   1.359       .  A
N1253      H1263   1.044       .  S
C1254      C1255   1.398       .  A
C1255      H1261   1.082       .  S
N1256      C1257   1.354       .  A
N1256      H1264   1.045       .  S
C1257      C1258   1.398       .  A
C1258      H1262   1.082       .  S
