geometry optimzed in LAMMPS
_audit_creation_date              2020-12-01 
_audit_creation_method            'lammps2cif' 
_symmetry_space_group_name_H-M    'P1' 
_symmetry_Int_Tables_number       1 
_symmetry_cell_setting            triclinic 
loop_ 
_symmetry_equiv_pos_as_xyz 
  x,y,z 
_cell_length_a                    45.40193479 
_cell_length_b                    45.541762808637145 
_cell_length_c                    30.315789358390685 
_cell_angle_alpha                 90.04414134519305 
_cell_angle_beta                  90.12935284573396 
_cell_angle_gamma                 90.00357470811626 
loop_ 
_atom_site_label 
_atom_site_type_symbol 
_atom_site_fract_x 
_atom_site_fract_y 
_atom_site_fract_z 
_atom_site_charge 
O1          O  0.33238969  0.97496750  0.07081017    -0.74100
O2          O  0.33238206  0.97404000  0.94434118    -0.74200
O3          O  0.37447541  0.97501667  0.00773898    -0.74200
O4          O  0.29021957  0.97389334  0.00686796    -0.74300
O5          O  0.28945299  0.02290635  0.00692805    -0.74200
O6          O  0.37381141  0.02398530  0.00670305    -0.74200
O7          O  0.33122638  0.02302920  0.94384326    -0.74200
O8          O  0.33179743  0.02396497  0.07005280    -0.74200
Ni9        Ni  0.33240441  0.97272620  0.00755547     1.25400
Ni10       Ni  0.33159490  0.02521632  0.00691145     1.25400
C11         C  0.33192643  0.99963140  0.09118512     0.88000
C12         C  0.33115863  0.99841989  0.92337070     0.88000
C13         C  0.38801715  0.99967908  0.00748283     0.88000
C14         C  0.27602621  0.99819008  0.00574255     0.88200
O15         O  0.33703262  0.97552125  0.44498294    -0.74100
O16         O  0.33589929  0.97680871  0.57133487    -0.74200
O17         O  0.29447899  0.97437447  0.50738736    -0.74200
O18         O  0.37872918  0.97801106  0.50932819    -0.74300
O19         O  0.37673367  0.02674645  0.50522291    -0.74200
O20         O  0.29259231  0.02335694  0.50908058    -0.74200
O21         O  0.33586084  0.02576717  0.57026767    -0.74200
O22         O  0.33335187  0.02431609  0.44392649    -0.74200
Ni23       Ni  0.33665921  0.97442304  0.50823322     1.25400
Ni24       Ni  0.33458893  0.02679382  0.50703558     1.25400
C25         C  0.33457750  0.99966138  0.42360995     0.88000
C26         C  0.33581059  0.00150155  0.59159995     0.88000
C27         C  0.27976090  0.99831961  0.50901447     0.88000
C28         C  0.39170159  0.00300636  0.50793868     0.88200
O29         O  0.02007427  0.66399877  0.06511298    -0.74100
O30         O  0.02435295  0.66749337  0.93894587    -0.74200
O31         O  0.02102147  0.70771257  0.00465932    -0.74200
O32         O  0.02329641  0.62371564  0.99961797    -0.74300
O33         O  0.97423875  0.62261487  0.99621165    -0.74200
O34         O  0.97204723  0.70661217  0.00009590    -0.74200
O35         O  0.97530320  0.66613391  0.93511295    -0.74200
O36         O  0.97107116  0.66336003  0.06120687    -0.74200
Ni37       Ni  0.02393997  0.66575097  0.00219288     1.25400
Ni38       Ni  0.97142749  0.66458969  0.99799670     1.25400
C39         C  0.99485425  0.66343538  0.08400220     0.88000
C40         C  0.00048829  0.66788456  0.91631839     0.88000
C41         C  0.99618383  0.72102604  0.00330692     0.88000
C42         C  0.99908374  0.60932052  0.99786859     0.88200
O43         O  0.02152026  0.66421628  0.43567865    -0.74100
O44         O  0.02468407  0.66673238  0.56186590    -0.74200
O45         O  0.02122688  0.62333294  0.50040402    -0.74200
O46         O  0.02466096  0.70752578  0.49685153    -0.74300
O47         O  0.97561152  0.70928019  0.49838641    -0.74200
O48         O  0.97241120  0.62536277  0.50381277    -0.74200
O49         O  0.97569151  0.66922867  0.56436493    -0.74200
O50         O  0.97241254  0.66532068  0.43811093    -0.74200
Ni51       Ni  0.02477349  0.66536906  0.49865945     1.25400
Ni52       Ni  0.97229943  0.66737803  0.50130999     1.25400
C53         C  0.99647078  0.66393490  0.41621085     0.88000
C54         C  0.00075514  0.66893968  0.58391110     0.88000
C55         C  0.99618156  0.61030702  0.50216717     0.88000
C56         C  0.00061299  0.72226741  0.49645220     0.88200
O57         O  0.66334714  0.02371653  0.05790785    -0.74100
O58         O  0.66625779  0.02540796  0.93161169    -0.74200
O59         O  0.62273352  0.02406679  0.99294657    -0.74200
O60         O  0.70695305  0.02511931  0.99714548    -0.74300
O61         O  0.70755293  0.97617093  0.99588439    -0.74200
O62         O  0.62338911  0.97508051  0.99174111    -0.74200
O63         O  0.66682817  0.97655349  0.93036941    -0.74200
O64         O  0.66399803  0.97475937  0.05661107    -0.74200
Ni65       Ni  0.66482643  0.02632706  0.99485730     1.25400
Ni66       Ni  0.66549738  0.97390222  0.99346790     1.25400
C67         C  0.66257741  0.99898383  0.07799795     0.88000
C68         C  0.66689202  0.00119748  0.91002582     0.88000
C69         C  0.60923782  0.99937867  0.99312392     0.88000
C70         C  0.72109911  0.00080274  0.99801972     0.88200
O71         O  0.66788824  0.02668588  0.42929270    -0.74100
O72         O  0.67069722  0.02939274  0.55544351    -0.74200
O73         O  0.71155231  0.02769298  0.49040301    -0.74200
O74         O  0.62725904  0.02828264  0.49429627    -0.74300
O75         O  0.62708937  0.97933795  0.49849667    -0.74200
O76         O  0.71123954  0.97869664  0.49101645    -0.74200
O77         O  0.67156366  0.98042895  0.55781933    -0.74200
O78         O  0.66644440  0.97772697  0.43163228    -0.74200
Ni79       Ni  0.66941180  0.02975733  0.49225680     1.25400
Ni80       Ni  0.66912923  0.97728789  0.49479218     1.25400
C81         C  0.66603534  0.00180395  0.40978967     0.88000
C82         C  0.67114063  0.00537583  0.57739218     0.88000
C83         C  0.72523524  0.00309836  0.48961736     0.88000
C84         C  0.61339349  0.00391058  0.49775300     0.88200
O85         O  0.95613567  0.99952881  0.96039625    -0.74100
O86         O  0.04052208  0.99773590  0.95942891    -0.74200
O87         O  0.99731339  0.95663926  0.95900178    -0.74200
O88         O  0.99916124  0.04087153  0.96102148    -0.74300
O89         O  0.99998916  0.03988970  0.03438711    -0.74200
O90         O  0.99738435  0.95592370  0.03242549    -0.74200
O91         O  0.04086976  0.99648713  0.03297841    -0.74200
O92         O  0.95672468  0.99906852  0.03395110    -0.74200
Ni93       Ni  0.99829158  0.99876567  0.95730782     1.25400
Ni94       Ni  0.99878665  0.99786965  0.03601302     1.25400
C95         C  0.94256915  0.99900438  0.99739430     0.88000
C96         C  0.05454240  0.99625134  0.99608526     0.88000
C97         C  0.99689807  0.94235257  0.99539343     0.88000
C98         C  0.99991394  0.05434404  0.99818133     0.88200
O99         O  0.96134140  0.00155805  0.46419286    -0.74100
O100        O  0.04553540  0.99867957  0.46820692    -0.74200
O101        O  0.00192354  0.95793526  0.46517498    -0.74200
O102        O  0.00504216  0.04194388  0.46710125    -0.74300
O103        O  0.00340077  0.04137116  0.54060782    -0.74200
O104        O  0.00092501  0.95714471  0.53875364    -0.74200
O105        O  0.04415446  0.99806545  0.54180471    -0.74200
O106        O  0.95986447  0.00039737  0.53775452    -0.74200
Ni107      Ni  0.00349351  0.99999896  0.46356424     1.25400
Ni108      Ni  0.00199524  0.99920425  0.54237209     1.25400
C109        C  0.94677981  0.00167807  0.50032270     0.88000
C110        C  0.05865855  0.99851127  0.50564941     0.88000
C111        C  0.00082462  0.94372308  0.50158998     0.88000
C112        C  0.00523188  0.05549207  0.50413874     0.88200
O113        O  0.97407731  0.33223845  0.06041151    -0.74100
O114        O  0.97824987  0.33170870  0.93413760    -0.74200
O115        O  0.97707863  0.28980403  0.99769770    -0.74200
O116        O  0.97514533  0.37387075  0.99664190    -0.74300
O117        O  0.02420297  0.37507458  0.00009162    -0.74200
O118        O  0.02604696  0.29090201  0.00113966    -0.74200
O119        O  0.02729575  0.33287634  0.93766262    -0.74200
O120        O  0.02315093  0.33356150  0.06378585    -0.74200
Ni121      Ni  0.97439519  0.33180372  0.99710198     1.25400
Ni122      Ni  0.02692044  0.33306435  0.00084492     1.25400
C123        C  0.99799089  0.33361324  0.08282966     0.88000
C124        C  0.00340418  0.33298853  0.91513478     0.88000
C125        C  0.00188258  0.27640556  0.99919291     0.88000
C126        C  0.99932428  0.38831809  0.99843292     0.88200
O127        O  0.97578945  0.33195888  0.43748028    -0.74100
O128        O  0.97959392  0.33136824  0.56378614    -0.74200
O129        O  0.97569156  0.37361003  0.50132902    -0.74200
O130        O  0.97960436  0.28957442  0.50019301    -0.74300
O131        O  0.02865203  0.29174691  0.49706927    -0.74200
O132        O  0.02474114  0.37583482  0.49723814    -0.74200
O133        O  0.02860216  0.33386113  0.56051904    -0.74200
O134        O  0.02482096  0.33388604  0.43425179    -0.74200
Ni135      Ni  0.97592588  0.33150588  0.50080263     1.25400
Ni136      Ni  0.02845774  0.33387715  0.49722004     1.25400
C137        C  0.99965139  0.33350078  0.41508308     0.88000
C138        C  0.00471977  0.33303308  0.58293822     0.88000
C139        C  0.99956551  0.38847692  0.49894897     0.88000
C140        C  0.00472709  0.27684717  0.49820500     0.88200
C141        C  0.98661346  0.35049381  0.79498090    -0.22200
C142        C  0.00733536  0.33281681  0.77352570     0.09800
C143        C  0.02781785  0.31653985  0.79852657     0.10200
C144        C  0.02629697  0.31737719  0.84477385    -0.17100
C145        C  0.00497367  0.33444294  0.86647145    -0.27500
C146        C  0.98558273  0.35213064  0.84112789     0.18500
C147        C  0.00721728  0.33204082  0.72473285     0.12500
C148        C  0.05104399  0.29817173  0.77632392    -0.11900
H149        H  0.04150275  0.30423926  0.86407830     0.12800
C150        C  0.96454901  0.37405774  0.86109823    -0.22700
H151        H  0.97146724  0.36357710  0.77545854     0.08400
C152        C  0.98852320  0.31283145  0.70129811     0.04700
C153        C  0.98820436  0.31374236  0.65502723    -0.19900
C154        C  0.00599225  0.33360450  0.63168072    -0.12200
C155        C  0.02423592  0.35338166  0.65545670     0.13500
C156        C  0.02494960  0.35192064  0.70168694    -0.22700
C157        C  0.96893617  0.29144183  0.72521730    -0.05700
H158        H  0.97410577  0.29872992  0.63693130     0.15000
C159        C  0.04197752  0.37737753  0.63382438    -0.15900
H160        H  0.03879966  0.36704081  0.72003527     0.09300
H161        H  0.94152203  0.36722278  0.85421344     0.07200
H162        H  0.96833721  0.39596091  0.84604214     0.08400
H163        H  0.96740767  0.37696504  0.89707834     0.07400
H164        H  0.06525443  0.31240448  0.75561577     0.02300
H165        H  0.04043498  0.28131690  0.75512484     0.02800
H166        H  0.06530168  0.28675984  0.80070221     0.06300
H167        H  0.95578986  0.27787223  0.70193776     0.05300
H168        H  0.95342420  0.30357396  0.74684267    -0.00500
H169        H  0.98255948  0.27647641  0.74572151     0.01000
H170        H  0.03604296  0.39885918  0.64872861     0.04600
H171        H  0.03794032  0.37946461  0.59798027     0.06600
H172        H  0.06581006  0.37334003  0.63941225     0.07400
C173        C  0.01289931  0.35443343  0.20224527    -0.22200
C174        C  0.99603788  0.33339806  0.22444368     0.09800
C175        C  0.97850391  0.31356165  0.20013553     0.10200
C176        C  0.97904163  0.31457051  0.15382799    -0.17100
C177        C  0.99661578  0.33507741  0.13144758    -0.27500
C178        C  0.01305828  0.35590000  0.15604423     0.18500
C179        C  0.99687265  0.33291977  0.27325601     0.12500
C180        C  0.95938062  0.29133118  0.22311858    -0.11900
H181        H  0.96616187  0.29889502  0.13498993     0.12800
C182        C  0.03001264  0.38069184  0.13503263    -0.22700
H183        H  0.02576232  0.37007882  0.22119351     0.08400
C184        C  0.01778364  0.31594629  0.29636014     0.04700
C185        C  0.01819696  0.31676931  0.34263554    -0.19900
C186        C  0.99836066  0.33440785  0.36633823    -0.12200
C187        C  0.97807982  0.35227489  0.34288594     0.13500
C188        C  0.97729293  0.35082623  0.29664493    -0.22700
C189        C  0.03972953  0.29712762  0.27212649    -0.05700
H190        H  0.03397020  0.30337771  0.36043768     0.15000
C191        C  0.95802920  0.37425426  0.36485908    -0.15900
H192        H  0.96177720  0.36437321  0.27856439     0.09300
H193        H  0.05385168  0.37811864  0.14227860     0.07200
H194        H  0.02236953  0.40192444  0.14896178     0.08400
H195        H  0.02694549  0.38207747  0.09886661     0.07400
H196        H  0.94318896  0.30279592  0.24444350     0.02300
H197        H  0.97318416  0.27667195  0.24382511     0.02800
H198        H  0.94702644  0.27749934  0.19922078     0.06300
H199        H  0.05458237  0.28527993  0.29520295     0.05300
H200        H  0.05349252  0.31109870  0.25037310    -0.00500
H201        H  0.02800962  0.28058659  0.25171296     0.01000
H202        H  0.96165901  0.39626889  0.35009273     0.04600
H203        H  0.96195701  0.37663600  0.40069300     0.06600
H204        H  0.93472223  0.36781215  0.35940230     0.07400
C205        C  0.02451454  0.13483508  0.53280411    -0.22200
C206        C  0.00692305  0.14998180  0.50235513     0.09800
C207        C  0.98947055  0.13407321  0.47212177     0.10200
C208        C  0.98970755  0.10329269  0.47340790    -0.17100
C209        C  0.00696317  0.08795281  0.50424140    -0.27500
C210        C  0.02518910  0.10399726  0.53374115     0.18500
C211        C  0.00706024  0.18253651  0.50249036     0.12500
C212        C  0.97019177  0.14959504  0.43901662    -0.11900
H213        H  0.97598374  0.09111489  0.45052326     0.12800
C214        C  0.04667687  0.08969854  0.56508660    -0.22700
H215        H  0.03825830  0.14720604  0.55546494     0.08400
C216        C  0.99054270  0.19866804  0.53351548     0.04700
C217        C  0.99017736  0.22943664  0.53104646    -0.19900
C218        C  0.00596283  0.24444535  0.49828417    -0.12200
C219        C  0.02227054  0.22818976  0.46681626     0.13500
C220        C  0.02291583  0.19743349  0.46979413    -0.22700
C221        C  0.97297279  0.18337968  0.56877525    -0.05700
H222        H  0.97762724  0.24189427  0.55500665     0.15000
C223        C  0.03799537  0.24219513  0.42843253    -0.15900
H224        H  0.03524900  0.18488822  0.44567434     0.09300
H225        H  0.04012740  0.09449939  0.59961226     0.07200
H226        H  0.06904790  0.09877881  0.55935468     0.08400
H227        H  0.04844398  0.06564815  0.56081752     0.07400
H228        H  0.98395560  0.16311607  0.41665787     0.02300
H229        H  0.95430273  0.16401651  0.45646376     0.02800
H230        H  0.95747792  0.13384679  0.41845624     0.06300
H231        H  0.96095124  0.19925742  0.58994895     0.05300
H232        H  0.98790079  0.17036122  0.59021263    -0.00500
H233        H  0.95657427  0.16849379  0.55326410     0.01000
H234        H  0.06197501  0.23771872  0.43095202     0.04600
H235        H  0.03468605  0.26621837  0.42634563     0.06600
H236        H  0.02959351  0.23264015  0.39711721     0.07400
C237        C  0.01198889  0.13423316  0.03290420    -0.22200
C238        C  0.99921858  0.14915964  0.99738461     0.09800
C239        C  0.98699467  0.13311782  0.96204155     0.10200
C240        C  0.98763367  0.10228954  0.96322086    -0.17100
C241        C  0.00017199  0.08704576  0.99903202    -0.27500
C242        C  0.01266915  0.10341678  0.03434037     0.18500
C243        C  0.99948742  0.18168757  0.99771429     0.12500
C244        C  0.97336145  0.14857626  0.92311463    -0.11900
H245        H  0.97800397  0.09004191  0.93611868     0.12800
C246        C  0.02755211  0.08888426  0.07311736    -0.22700
H247        H  0.02153223  0.14688224  0.05967221     0.08400
C248        C  0.97655731  0.19797484  0.01720292     0.04700
C249        C  0.97805322  0.22876642  0.01724215    -0.19900
C250        C  0.00221804  0.24373334  0.99887616    -0.12200
C251        C  0.02537689  0.22716675  0.97967161     0.13500
C252        C  0.02358868  0.19635674  0.97927182    -0.22700
C253        C  0.95063122  0.18281603  0.03816365    -0.05700
H254        H  0.96034039  0.24121637  0.03217815     0.15000
C255        C  0.05166338  0.24157329  0.95844589    -0.15900
H256        H  0.04112710  0.18353528  0.96455841     0.09300
H257        H  0.01122142  0.07626467  0.09258554     0.07200
H258        H  0.03771462  0.10520857  0.09574568     0.08400
H259        H  0.04530692  0.07407650  0.06132471     0.07400
H260        H  0.99009362  0.16264244  0.90685973     0.02300
H261        H  0.95475513  0.16250848  0.93427671     0.02800
H262        H  0.96479249  0.13277726  0.89827781     0.06300
H263        H  0.93464625  0.19879699  0.05201423     0.05300
H264        H  0.95837819  0.16846154  0.06540474    -0.00500
H265        H  0.93896837  0.16922120  0.01325086     0.01000
H266        H  0.06466117  0.25364713  0.98363937     0.04600
H267        H  0.04424180  0.25691917  0.93222951     0.06600
H268        H  0.06658495  0.22520896  0.94302350     0.07400
C269        C  0.86808487  0.02353863  0.47276676    -0.22200
C270        C  0.85231089  0.00177156  0.49519496     0.09800
C271        C  0.86756137  0.98041349  0.51996856     0.10200
C272        C  0.89845183  0.98122887  0.52156210    -0.17100
C273        C  0.91434240  0.00286381  0.49880214    -0.27500
C274        C  0.89893077  0.02462416  0.47464563     0.18500
C275        C  0.81974491  0.00244536  0.49352452     0.12500
C276        C  0.85118973  0.95688824  0.54474085    -0.11900
H277        H  0.91030283  0.96465176  0.54014126     0.12800
C278        C  0.91401974  0.04998938  0.45208071    -0.22700
H279        H  0.85616665  0.04017756  0.45439055     0.08400
C280        C  0.80345560  0.02049595  0.52233023     0.04700
C281        C  0.77262596  0.02060043  0.51954983    -0.19900
C282        C  0.75772601  0.00301516  0.48869118    -0.12200
C283        C  0.77416170  0.98544662  0.45900925     0.13500
C284        C  0.80501762  0.98517908  0.46220189    -0.22700
C285        C  0.81863948  0.03935514  0.55630869    -0.05700
H286        H  0.76002632  0.03407064  0.54219068     0.15000
C287        C  0.76018546  0.96771785  0.42250000    -0.15900
H288        H  0.81773508  0.97172080  0.43968300     0.09300
H289        H  0.90500412  0.07098173  0.46494335     0.07200
H290        H  0.90984162  0.04886891  0.41602467     0.08400
H291        H  0.93809827  0.05051382  0.45767879     0.07400
H292        H  0.83800572  0.94349054  0.52131311     0.02300
H293        H  0.83622554  0.96712898  0.56924150     0.02800
H294        H  0.86645490  0.94199092  0.56263298     0.06300
H295        H  0.80261123  0.05191866  0.57651334     0.05300
H296        H  0.83341327  0.05529573  0.53971133    -0.00500
H297        H  0.83186089  0.02533235  0.57881438     0.01000
H298        H  0.76979172  0.97439820  0.39037328     0.04600
H299        H  0.73607564  0.97089382  0.41985732     0.06600
H300        H  0.76471916  0.94403037  0.42785045     0.07400
C301        C  0.65848267  0.98140923  0.78805176    -0.22200
C302        C  0.67180191  0.00565996  0.76797349     0.09800
C303        C  0.68311064  0.02855267  0.79432111     0.10200
C304        C  0.68111108  0.02648205  0.84045384    -0.17100
C305        C  0.66813730  0.00195974  0.86096642    -0.27500
C306        C  0.65646301  0.97916689  0.83413424     0.18500
C307        C  0.67296510  0.00666808  0.71914611     0.12500
C308        C  0.69754467  0.05495809  0.77372182    -0.11900
H309        H  0.69006534  0.04401980  0.86061290     0.12800
C310        C  0.64100618  0.95282100  0.85333870    -0.22700
H311        H  0.64953275  0.96413635  0.76735003     0.08400
C312        C  0.69357952  0.98988924  0.69516876     0.04700
C313        C  0.69239968  0.98989412  0.64887797    -0.19900
C314        C  0.67113423  0.00637241  0.62607429    -0.12200
C315        C  0.65035495  0.02309801  0.65027339     0.13500
C316        C  0.65182631  0.02325998  0.69650676    -0.22700
C317        C  0.71691317  0.97219414  0.71847605    -0.05700
H318        H  0.70827198  0.97710939  0.63033883     0.15000
C319        C  0.62539224  0.03979392  0.62898165    -0.15900
H320        H  0.63574430  0.03572164  0.71515909     0.09300
H321        H  0.65678118  0.93935224  0.87264751     0.07200
H322        H  0.63161930  0.93843731  0.82724672     0.08400
H323        H  0.62259339  0.96010917  0.87477248     0.07400
H324        H  0.68151139  0.06661101  0.75229215     0.02300
H325        H  0.71664671  0.04785174  0.75355336     0.02800
H326        H  0.70558046  0.07069175  0.79904656     0.06300
H327        H  0.73160899  0.96075754  0.69478914     0.05300
H328        H  0.70644954  0.95534132  0.73971857    -0.00500
H329        H  0.73064383  0.98692806  0.73925050     0.01000
H330        H  0.60414412  0.03223975  0.64306586     0.04600
H331        H  0.62389209  0.03659847  0.59287970     0.06600
H332        H  0.62794988  0.06360666  0.63586083     0.07400
C333        C  0.64347661  0.01785442  0.19683861    -0.22200
C334        C  0.66177936  0.99830470  0.21962962     0.09800
C335        C  0.67872999  0.97770814  0.19600197     0.10200
C336        C  0.67807605  0.97808373  0.14972843    -0.17100
C337        C  0.66049843  0.99831288  0.12663816    -0.27500
C338        C  0.64202803  0.01768596  0.15061843     0.18500
C339        C  0.66274515  0.99970743  0.26834146     0.12500
C340        C  0.69747779  0.95541083  0.21968734    -0.11900
H341        H  0.69179739  0.96286633  0.13148052     0.12800
C342        C  0.61956111  0.03747004  0.12907964    -0.22700
H343        H  0.62986578  0.03305481  0.21533539     0.08400
C344        C  0.68391810  0.01693928  0.29051871     0.04700
C345        C  0.68428291  0.01729252  0.33678210    -0.19900
C346        C  0.66378215  0.00102192  0.36126793    -0.12200
C347        C  0.64177053  0.98469290  0.33887835     0.13500
C348        C  0.64185009  0.98393210  0.29260612    -0.22700
C349        C  0.70596298  0.03505090  0.26531579    -0.05700
H350        H  0.70085037  0.03010470  0.35397805     0.15000
C351        C  0.61711455  0.96895066  0.36230542    -0.15900
H352        H  0.62521884  0.97128221  0.27525917     0.09300
H353        H  0.62569392  0.06077663  0.13467535     0.07200
H354        H  0.59761216  0.03341961  0.14400016     0.08400
H355        H  0.61699403  0.03359432  0.09324510     0.07400
H356        H  0.68335397  0.94153471  0.24106193     0.02300
H357        H  0.71417035  0.96667824  0.24044290     0.02800
H358        H  0.70922825  0.94080048  0.19624297     0.06300
H359        H  0.72089432  0.04734860  0.28776386     0.05300
H360        H  0.69422277  0.05117771  0.24419528    -0.00500
H361        H  0.71965461  0.02062583  0.24414953     0.01000
H362        H  0.59562883  0.97716188  0.34979166     0.04600
H363        H  0.61716924  0.97240924  0.39844226     0.06600
H364        H  0.61860211  0.94502922  0.35560887     0.07400
C365        C  0.80053296  0.02063834  0.02554685    -0.22200
C366        C  0.81561265  0.00080538  0.99850095     0.09800
C367        C  0.79975311  0.98040378  0.97281457     0.10200
C368        C  0.76891309  0.98082129  0.97382585    -0.17100
C369        C  0.75358559  0.00094610  0.00036115    -0.27500
C370        C  0.76966982  0.02061733  0.02760564     0.18500
C371        C  0.84811910  0.00108821  0.99848193     0.12500
C372        C  0.81542371  0.95830476  0.94425199    -0.11900
H373        H  0.75667945  0.96557311  0.95330378     0.12800
C374        C  0.75545746  0.04079082  0.06083453    -0.22700
H375        H  0.81299114  0.03576634  0.04598981     0.08400
C376        C  0.86409901  0.01904552  0.96923911     0.04700
C377        C  0.89495867  0.01759890  0.96925236    -0.19900
C378        C  0.91008764  0.99857649  0.99786648    -0.12200
C379        C  0.89385018  0.98006755  0.02651806     0.13500
C380        C  0.86306202  0.98205468  0.02698006    -0.22700
C381        C  0.84852662  0.03965684  0.93813309    -0.05700
H382        H  0.90736160  0.03165809  0.94721517     0.15000
C383        C  0.90781113  0.95690184  0.05536281    -0.15900
H384        H  0.85050386  0.96795110  0.04878398     0.09300
H385        H  0.75937389  0.06398635  0.05125448     0.07200
H386        H  0.76543261  0.03695222  0.09382048     0.08400
H387        H  0.73150970  0.03719856  0.06463991     0.07400
H388        H  0.82958903  0.94403995  0.96506496     0.02300
H389        H  0.82934572  0.96983651  0.91970070     0.02800
H390        H  0.79968627  0.94402738  0.92610584     0.06300
H391        H  0.86431724  0.05211376  0.91739524     0.05300
H392        H  0.83524107  0.05566576  0.95726026    -0.00500
H393        H  0.83373844  0.02702753  0.91591991     0.01000
H394        H  0.90428857  0.96253637  0.09059607     0.04600
H395        H  0.93165808  0.95394636  0.04952479     0.06600
H396        H  0.89734012  0.93532577  0.04852335     0.07400
C397        C  0.96955783  0.53026625  0.49676840    -0.22200
C398        C  0.99631422  0.51518786  0.50014907     0.09800
C399        C  0.02276869  0.53114377  0.50412036     0.10200
C400        C  0.02185698  0.56194056  0.50490670    -0.17100
C401        C  0.99506296  0.57745672  0.50185420    -0.27500
C402        C  0.96842475  0.56111660  0.49768999     0.18500
C403        C  0.99611847  0.48261200  0.49985252     0.12500
C404        C  0.05197797  0.51564986  0.50820962    -0.11900
H405        H  0.04236731  0.57389186  0.50809379     0.12800
C406        C  0.93860213  0.57550734  0.49390162    -0.22700
H407        H  0.94940587  0.51769714  0.49348669     0.08400
C408        C  0.98700440  0.46633542  0.53703582     0.04700
C409        C  0.98791570  0.43552394  0.53553430    -0.19900
C410        C  0.99803874  0.42074286  0.49791474    -0.12200
C411        C  0.00673403  0.43703577  0.46042768     0.13500
C412        C  0.00560449  0.46780065  0.46190109    -0.22700
C413        C  0.97699645  0.48148152  0.57857460    -0.05700
H414        H  0.98125176  0.42289081  0.56413291     0.15000
C415        C  0.01672187  0.42278632  0.41810528    -0.15900
H416        H  0.01225242  0.48037569  0.43323636     0.09300
H417        H  0.93391815  0.58845347  0.52412093     0.07200
H418        H  0.92063624  0.55911780  0.49028800     0.08400
H419        H  0.93789333  0.58989477  0.46438934     0.07400
H420        H  0.05622084  0.50239058  0.47816320     0.02300
H421        H  0.05173823  0.50098689  0.53745218     0.02800
H422        H  0.07047956  0.53139125  0.51216266     0.06300
H423        H  0.97140536  0.46548708  0.60489763     0.05300
H424        H  0.95708702  0.49486146  0.57169551    -0.00500
H425        H  0.99480893  0.49598413  0.59111872     0.01000
H426        H  0.00215690  0.42989655  0.39064842     0.04600
H427        H  0.01613523  0.39849410  0.41925516     0.06600
H428        H  0.03963532  0.42968741  0.41070927     0.07400
C429        C  0.02146240  0.80178549  0.47130385    -0.22200
C430        C  0.00167735  0.81681993  0.49859335     0.09800
C431        C  0.98132075  0.80084965  0.52412682     0.10200
C432        C  0.98149036  0.77007368  0.52230209    -0.17100
C433        C  0.00139349  0.75479343  0.49524918    -0.27500
C434        C  0.02127359  0.77097746  0.46857775     0.10500
C435        C  0.00203871  0.84936100  0.49917428     0.12500
C436        C  0.95961446  0.81632084  0.55361673    -0.11900
H437        H  0.96617369  0.75783205  0.54259258     0.12800
C438        C  0.04150667  0.75696787  0.43523734    -0.22700
H439        H  0.03668158  0.81425103  0.45113634     0.08400
C440        C  0.02190883  0.86514595  0.52602187     0.04700
C441        C  0.02065932  0.89595901  0.52659741    -0.19900
C442        C  0.00005276  0.91130230  0.50079643    -0.12200
C443        C  0.97980147  0.89535763  0.47441599     0.13500
C444        C  0.98135578  0.86458681  0.47356576    -0.22700
C445        C  0.04426340  0.84942960  0.55417331    -0.05700
H446        H  0.03611089  0.90817474  0.54683356     0.15000
C447        C  0.95544159  0.90976562  0.44834306    -0.15900
H448        H  0.96585025  0.85229454  0.45351436     0.09300
H449        H  0.06477065  0.76083651  0.44498939     0.07200
H450        H  0.03765485  0.76705286  0.40237725     0.08400
H451        H  0.03794761  0.73311238  0.43111085     0.07400
H452        H  0.94505717  0.83066128  0.53355197     0.02300
H453        H  0.97161409  0.82994207  0.57815887     0.02800
H454        H  0.94548533  0.80054264  0.57179090     0.06300
H455        H  0.05800456  0.86504704  0.57343596     0.05300
H456        H  0.05909513  0.83620223  0.53293272    -0.00500
H457        H  0.03284898  0.83466312  0.57772032     0.01000
H458        H  0.95867013  0.90538940  0.41264851     0.04600
H459        H  0.95406922  0.93379259  0.45343089     0.06600
H460        H  0.93392077  0.90041899  0.45857674     0.07400
C461        C  0.01781956  0.52936564  0.02165880    -0.22200
C462        C  0.99932611  0.51504017  0.99153950     0.09800
C463        C  0.98065412  0.53161006  0.96396263     0.10200
C464        C  0.98111209  0.56236442  0.96688247    -0.17100
C465        C  0.99962837  0.57687772  0.99705390    -0.27500
C466        C  0.01787644  0.56005806  0.02545792     0.18500
C467        C  0.99880029  0.48257065  0.99146193     0.12500
C468        C  0.96024800  0.51680226  0.93164265    -0.11900
H469        H  0.96702765  0.57517868  0.94532300     0.12800
C470        C  0.03642872  0.57324731  0.06178230    -0.22700
H471        H  0.03166415  0.51638957  0.04337592     0.08400
C472        C  0.01900029  0.46603096  0.96646702     0.04700
C473        C  0.01868811  0.43528873  0.96969492    -0.19900
C474        C  0.99870172  0.42075716  0.99750014    -0.12200
C475        C  0.97864793  0.43753764  0.02296815     0.13500
C476        C  0.97872858  0.46821847  0.01901424    -0.22700
C477        C  0.04081772  0.48086440  0.93648908    -0.05700
H478        H  0.03399311  0.42249335  0.95013126     0.15000
C479        C  0.95793499  0.42430986  0.05634799    -0.15900
H480        H  0.96358400  0.48117074  0.03865585     0.09300
H481        H  0.06008080  0.56910839  0.05494413     0.07200
H482        H  0.03063254  0.56276276  0.09367485     0.08400
H483        H  0.03306913  0.59710502  0.06624945     0.07400
H484        H  0.94467044  0.50234484  0.94960366     0.02300
H485        H  0.97320359  0.50337036  0.90807464     0.02800
H486        H  0.94718529  0.53300417  0.91245178     0.06300
H487        H  0.05495753  0.46468913  0.91909806     0.05300
H488        H  0.05530314  0.49560133  0.95605291    -0.00500
H489        H  0.02893616  0.49401106  0.91128349     0.01000
H490        H  0.96146708  0.43501431  0.08886224     0.04600
H491        H  0.96126382  0.40051478  0.06157489     0.06600
H492        H  0.93481582  0.42813897  0.04580281     0.07400
C493        C  0.98487078  0.68888337  0.79709881    -0.22200
C494        C  0.00385489  0.66981087  0.77470157     0.09800
C495        C  0.02280924  0.65127181  0.79886932     0.10200
C496        C  0.02169696  0.65160754  0.84517132    -0.17100
C497        C  0.00205246  0.67008843  0.86774058    -0.27500
C498        C  0.98398830  0.68962610  0.84332487     0.18500
C499        C  0.00309153  0.66938602  0.72585673     0.12500
C500        C  0.04377110  0.63082512  0.77571947    -0.11900
H501        H  0.03573008  0.63687085  0.86383247     0.12800
C502        C  0.96437992  0.71232923  0.86452634    -0.22700
H503        H  0.97076463  0.70348048  0.77828387     0.08400
C504        C  0.98148795  0.65326030  0.70278174     0.04700
C505        C  0.98117178  0.65387669  0.65651320    -0.19900
C506        C  0.00185230  0.67042161  0.63269847    -0.12200
C507        C  0.02300878  0.68735263  0.65610075     0.13500
C508        C  0.02362729  0.68613530  0.70239072    -0.22700
C509        C  0.95894830  0.63520583  0.72706231    -0.05700
H510        H  0.96489272  0.64102823  0.63879098     0.15000
C511        C  0.04426567  0.70810622  0.63402307    -0.15900
H512        H  0.03978898  0.69895547  0.72042186     0.09300
H513        H  0.94101105  0.70750807  0.85645340     0.07200
H514        H  0.97002975  0.73440036  0.85147852     0.08400
H515        H  0.96682359  0.71354825  0.90078575     0.07400
H516        H  0.05932338  0.64371238  0.75519986     0.02300
H517        H  0.03124222  0.61550883  0.75421574     0.02800
H518        H  0.05684542  0.61759709  0.79949805     0.06300
H519        H  0.94383182  0.62363725  0.70402795     0.05300
H520        H  0.94549133  0.64964815  0.74857239    -0.00500
H521        H  0.97021572  0.61847895  0.74769826     0.01000
H522        H  0.04195839  0.73031658  0.64878024     0.04600
H523        H  0.04036968  0.71070247  0.59822088     0.06600
H524        H  0.06717225  0.70033262  0.63937711     0.07400
C525        C  0.97249109  0.67733948  0.20340888    -0.22200
C526        C  0.99408702  0.66129538  0.22593614     0.09800
C527        C  0.01538517  0.64544011  0.20197271     0.10200
C528        C  0.01497882  0.64648294  0.15572237    -0.17100
C529        C  0.99345195  0.66263824  0.13284186    -0.27500
C530        C  0.97181520  0.67821678  0.15709976     0.18500
C531        C  0.99460635  0.66220452  0.27472388     0.12500
C532        C  0.03853247  0.62749583  0.22529017    -0.11900
H533        H  0.03147927  0.63444007  0.13729293     0.12800
C534        C  0.94869870  0.69674396  0.13468495    -0.22700
H535        H  0.95631945  0.68953156  0.22227895     0.08400
C536        C  0.01076857  0.68388984  0.29754577     0.04700
C537        C  0.01114798  0.68366040  0.34380195    -0.19900
C538        C  0.99548603  0.66242507  0.36767621    -0.12200
C539        C  0.97949480  0.64047683  0.34471907     0.13500
C540        C  0.97906525  0.64085178  0.29841851    -0.22700
C541        C  0.02748789  0.70730516  0.27302491    -0.05700
H542        H  0.02342819  0.70037349  0.36148061     0.15000
C543        C  0.96372264  0.61568001  0.36765268    -0.15900
H544        H  0.96694952  0.62406704  0.28062234     0.09300
H545        H  0.93485283  0.70872388  0.15891810     0.07200
H546        H  0.93382636  0.68262314  0.11479181     0.08400
H547        H  0.95941857  0.71325460  0.11307434     0.07400
H548        H  0.02778461  0.61035787  0.24571324     0.02300
H549        H  0.05203595  0.64186220  0.24692646     0.02800
H550        H  0.05350884  0.61641288  0.20161932     0.06300
H551        H  0.03891349  0.72260269  0.29591910     0.05300
H552        H  0.01203351  0.72030029  0.25239140    -0.00500
H553        H  0.04431538  0.69703275  0.25146179     0.01000
H554        H  0.93978599  0.61692177  0.36033135     0.04600
H555        H  0.96675633  0.61581322  0.40387742     0.06600
H556        H  0.97232424  0.59436800  0.35536362     0.07400
C557        C  0.01300204  0.80121393  0.02910605    -0.22200
C558        C  0.99229966  0.81539560  0.00223607     0.09800
C559        C  0.97234117  0.79864035  0.97695680     0.10200
C560        C  0.97390554  0.76789488  0.97849389    -0.17100
C561        C  0.99518044  0.75352269  0.00440743    -0.27500
C562        C  0.01469591  0.77045017  0.03066151     0.18500
C563        C  0.99249885  0.84786624  0.00026761     0.12500
C564        C  0.94935864  0.81323067  0.94854699    -0.11900
H565        H  0.95875339  0.75502149  0.95870799     0.12800
C566        C  0.03672366  0.75638896  0.06136373    -0.22700
H567        H  0.02804310  0.81436170  0.04869529     0.08400
C568        C  0.97991438  0.86508762  0.03392102     0.04700
C569        C  0.98156233  0.89579131  0.03114264    -0.19900
C570        C  0.99535940  0.90975681  0.99529718    -0.12200
C571        C  0.00773125  0.89227103  0.96128802     0.13500
C572        C  0.00618384  0.86154252  0.96440230    -0.22700
C573        C  0.96455557  0.85104471  0.07252350    -0.05700
H574        H  0.97183618  0.90896162  0.05707969     0.15000
C575        C  0.02343248  0.90554596  0.92234236    -0.15900
H576        H  0.01588143  0.84799879  0.93885929     0.09300
H577        H  0.04858008  0.77299983  0.08153932     0.07200
H578        H  0.05347977  0.74413427  0.04217780     0.08400
H579        H  0.02523745  0.74122106  0.08427688     0.07400
H580        H  0.96016566  0.82699967  0.92309566     0.02300
H581        H  0.93501287  0.82729702  0.96933274     0.02800
H582        H  0.93521514  0.79689123  0.93141060     0.06300
H583        H  0.95548709  0.86771096  0.09555642     0.05300
H584        H  0.98029182  0.83710567  0.09117069    -0.00500
H585        H  0.94604582  0.83723602  0.06048986     0.01000
H586        H  0.03312170  0.88845532  0.90060943     0.04600
H587        H  0.04162693  0.91990832  0.93399624     0.06600
H588        H  0.00771616  0.91844695  0.90205925     0.07400
C589        C  0.47183166  0.02759837  0.52153984    -0.22200
C590        C  0.48654735  0.00369498  0.50281433     0.09800
C591        C  0.47035401  0.97951249  0.48703896     0.10200
C592        C  0.43953408  0.98001589  0.48963090    -0.17100
C593        C  0.42441325  0.00402590  0.50815682    -0.27500
C594        C  0.44103765  0.02796988  0.52535676     0.18500
C595        C  0.51907061  0.00413537  0.50121315     0.12500
C596        C  0.48564766  0.95330548  0.46718735    -0.11900
H597        H  0.42716856  0.96159343  0.47654894     0.12800
C598        C  0.42794007  0.05375641  0.54972343    -0.22700
H599        H  0.48461638  0.04586257  0.53430399     0.08400
C600        C  0.53427412  0.01794412  0.46644063     0.04700
C601        C  0.56517436  0.01787863  0.46654716    -0.19900
C602        C  0.58105694  0.00415350  0.50051718    -0.12200
C603        C  0.56573883  0.99071512  0.53576512     0.13500
C604        C  0.53486788  0.99074667  0.53544579    -0.22700
C605        C  0.51784528  0.03242084  0.42912523    -0.05700
H606        H  0.57701913  0.02814768  0.43963663     0.15000
C607        C  0.58103503  0.97706937  0.57492903    -0.15900
H608        H  0.52298167  0.98048787  0.56233424     0.09300
H609        H  0.43147686  0.07413879  0.53037620     0.07200
H610        H  0.43912086  0.05618085  0.58215566     0.08400
H611        H  0.40428651  0.05160623  0.55704037     0.07400
H612        H  0.50051766  0.94319513  0.49201350     0.02300
H613        H  0.49879698  0.96027947  0.43819775     0.02800
H614        H  0.46970191  0.93631614  0.45613230     0.06300
H615        H  0.53309933  0.04195691  0.40438267     0.05300
H616        H  0.50381720  0.05037994  0.44219527    -0.00500
H617        H  0.50369160  0.01601886  0.41217843     0.01000
H618        H  0.57321532  0.98778809  0.60566262     0.04600
H619        H  0.60528580  0.97949283  0.57413874     0.06600
H620        H  0.57565746  0.95331093  0.57645992     0.07400
C621        C  0.13861203  0.01850237  0.48543899    -0.22200
C622        C  0.15298456  0.99646042  0.50938118     0.09800
C623        C  0.13637984  0.97568733  0.53320456     0.10200
C624        C  0.10551899  0.97712469  0.53184139    -0.17100
C625        C  0.09105363  0.99887304  0.50719238    -0.27500
C626        C  0.10781017  0.02025744  0.48445351     0.18500
C627        C  0.18551784  0.99592935  0.50950870     0.12500
C628        C  0.15125981  0.95188236  0.55954152    -0.11900
H629        H  0.09260234  0.96094270  0.54950320     0.12800
C630        C  0.09418791  0.04589942  0.46041930    -0.22700
H631        H  0.15157596  0.03471852  0.46790762     0.08400
C632        C  0.20148862  0.98311171  0.47459619     0.04700
C633        C  0.23236988  0.98365000  0.47579788    -0.19900
C634        C  0.24745552  0.99708141  0.51082270    -0.12200
C635        C  0.23140482  0.00948922  0.54619837     0.13500
C636        C  0.20055587  0.00888536  0.54489798    -0.22700
C637        C  0.18590609  0.96900479  0.43612959    -0.05700
H638        H  0.24480958  0.97410321  0.44887279     0.15000
C639        C  0.24595153  0.02275054  0.58632564    -0.15900
H640        H  0.18810151  0.01849514  0.57176858     0.09300
H641        H  0.09965937  0.04454119  0.42480219     0.07200
H642        H  0.10324476  0.06670634  0.47394078     0.08400
H643        H  0.06996042  0.04710368  0.46387300     0.07400
H644        H  0.16528524  0.96185538  0.58558587     0.02300
H645        H  0.16520937  0.93829353  0.53748044     0.02800
H646        H  0.13501419  0.93723093  0.57578223     0.06300
H647        H  0.20171138  0.95982797  0.41183819     0.05300
H648        H  0.17204714  0.98552975  0.41896014    -0.00500
H649        H  0.17169540  0.95084448  0.44806064     0.01000
H650        H  0.23988823  0.04630596  0.58888696     0.04600
H651        H  0.27027474  0.02106544  0.58584335     0.06600
H652        H  0.23819023  0.01117556  0.61636425     0.07400
C653        C  0.53057846  0.98175015  0.02619793    -0.22200
C654        C  0.51486027  0.99969663  0.99702781     0.09800
C655        C  0.53010377  0.01784205  0.96715124     0.10200
C656        C  0.56098917  0.01724311  0.96661311    -0.17100
C657        C  0.57684636  0.99904039  0.99549017    -0.27500
C658        C  0.56143433  0.98151686  0.02643695     0.18500
C659        C  0.48238072  0.99961020  0.99926429     0.12500
C660        C  0.51374394  0.03783742  0.93605319    -0.11900
H661        H  0.57283566  0.03091413  0.94337305     0.12800
C662        C  0.57646958  0.96349623  0.06166498    -0.22700
H663        H  0.51863372  0.96830625  0.04964980     0.08400
C664        C  0.46549321  0.97956259  0.97445150     0.04700
C665        C  0.43473051  0.97998832  0.97828722    -0.19900
C666        C  0.42053129  0.99983980  0.00668102    -0.12200
C667        C  0.43769114  0.01931430  0.03267334     0.13500
C668        C  0.46841411  0.01922455  0.02798709    -0.22700
C669        C  0.47998283  0.95777240  0.94402351    -0.05700
H670        H  0.42164857  0.96495689  0.95858686     0.15000
C671        C  0.42480556  0.03942143  0.06717054    -0.15900
H672        H  0.48168165  0.03412329  0.04766296     0.09300
H673        H  0.57150044  0.93987642  0.05643219     0.07200
H674        H  0.56804027  0.97014807  0.09455672     0.08400
H675        H  0.60063736  0.96639674  0.06271185     0.07400
H676        H  0.50021805  0.05363080  0.95520439     0.02300
H677        H  0.49909863  0.02471131  0.91430293     0.02800
H678        H  0.52903489  0.05056382  0.91484769     0.06300
H679        H  0.46353653  0.94368818  0.92698040     0.05300
H680        H  0.49495223  0.94331481  0.96321115    -0.00500
H681        H  0.49291277  0.96954522  0.91853618     0.01000
H682        H  0.43576093  0.03523618  0.09935382     0.04600
H683        H  0.40094597  0.03612911  0.07253050     0.06600
H684        H  0.42870768  0.06263053  0.05764675     0.07400
C685        C  0.35145799  0.01881806  0.71223223    -0.22200
C686        C  0.33166713  0.99980852  0.73311984     0.09800
C687        C  0.31302943  0.98174882  0.70759604     0.10200
C688        C  0.31493167  0.98278668  0.66144371    -0.17100
C689        C  0.33478681  0.00175405  0.64032004    -0.27500
C690        C  0.35328425  0.02003671  0.66605111     0.18500
C691        C  0.33129938  0.99873854  0.78186683     0.12500
C692        C  0.29134147  0.96128014  0.72913523    -0.11900
H693        H  0.30066988  0.96889568  0.64169430     0.12800
C694        C  0.37590703  0.03978287  0.64519599    -0.22700
H695        H  0.36577253  0.03247309  0.73226081     0.08400
C696        C  0.35148273  0.98123600  0.80555608     0.04700
C697        C  0.35049666  0.98109831  0.85181079    -0.19900
C698        C  0.32984743  0.99816406  0.87477435    -0.12200
C699        C  0.30896471  0.01496709  0.85082586     0.13500
C700        C  0.31029268  0.01534278  0.80461978    -0.22700
C701        C  0.37403591  0.96279218  0.78194512    -0.05700
H702        H  0.36629525  0.96806627  0.87018345     0.15000
C703        C  0.28427022  0.03177662  0.87247629    -0.15900
H704        H  0.29452789  0.02834276  0.78611298     0.09300
H705        H  0.38936699  0.05143886  0.67034636     0.07200
H706        H  0.36493472  0.05665649  0.62453413     0.08400
H707        H  0.39101549  0.02641510  0.62461869     0.07400
H708        H  0.27555224  0.97409350  0.74937838     0.02300
H709        H  0.30322627  0.94550480  0.75066454     0.02800
H710        H  0.27856532  0.94855267  0.70436434     0.06300
H711        H  0.38800680  0.95024168  0.80540789     0.05300
H712        H  0.38863034  0.97710150  0.76198430    -0.00500
H713        H  0.36277939  0.94688014  0.75984834     0.01000
H714        H  0.28698123  0.05560295  0.86591943     0.04600
H715        H  0.28297299  0.02835459  0.90855028     0.06600
H716        H  0.26287944  0.02444891  0.85843989     0.07400
C717        C  0.31300025  0.01621946  0.21079880    -0.22200
C718        C  0.33505575  0.00044166  0.23279287     0.09800
C719        C  0.35577882  0.98418085  0.20828984     0.10200
C720        C  0.35398605  0.98410043  0.16204525    -0.17100
C721        C  0.33198985  0.99999881  0.13986026    -0.27500
C722        C  0.31100053  0.01605551  0.16461044     0.18500
C723        C  0.33529679  0.00039962  0.28162073     0.12500
C724        C  0.37973533  0.96699032  0.23101978    -0.11900
H725        H  0.37004155  0.97184903  0.14304927     0.12800
C726        C  0.28550918  0.03222136  0.14384581    -0.22700
H727        H  0.29689788  0.02834483  0.22990850     0.08400
C728        C  0.35028000  0.02216061  0.30593615     0.04700
C729        C  0.34946423  0.02132458  0.35219993    -0.19900
C730        C  0.33375270  0.99938234  0.37475217    -0.12200
C731        C  0.31794088  0.97805391  0.35004016     0.13500
C732        C  0.31943684  0.97860287  0.30381095    -0.22700
C733        C  0.36709129  0.04621036  0.28301050    -0.05700
H734        H  0.36140792  0.03778391  0.37090206     0.15000
C735        C  0.29803473  0.95533495  0.37055002    -0.15900
H736        H  0.30749312  0.96229001  0.28478502     0.09300
H737        H  0.28731540  0.05601455  0.15137814     0.07200
H738        H  0.26451241  0.02381042  0.15768552     0.08400
H739        H  0.28422228  0.02947523  0.10764361     0.07400
H740        H  0.36978798  0.95019005  0.25292098     0.02300
H741        H  0.39361872  0.98199665  0.25108906     0.02800
H742        H  0.39419815  0.95558352  0.20698507     0.06300
H743        H  0.37762809  0.06144327  0.30693458     0.05300
H744        H  0.35188281  0.05915021  0.26189417    -0.00500
H745        H  0.38463612  0.03653791  0.26211525     0.01000
H746        H  0.27577817  0.95690331  0.35544531     0.04600
H747        H  0.29492454  0.95815875  0.40644209     0.06600
H748        H  0.30699451  0.93305425  0.36414736     0.07400
C749        C  0.13381357  0.97624701  0.02348976    -0.22200
C750        C  0.14907821  0.99671010  0.99778412     0.09800
C751        C  0.13334463  0.01594846  0.96995334     0.10200
C752        C  0.10245738  0.01478737  0.96932202    -0.17100
C753        C  0.08702305  0.99478639  0.99585653    -0.27500
C754        C  0.10296900  0.97467364  0.02242134     0.18500
C755        C  0.18161584  0.99736466  0.00017105     0.12500
C756        C  0.14917720  0.03794717  0.94149980    -0.11900
H757        H  0.09026207  0.03002117  0.94876175     0.12800
C758        C  0.08849886  0.95050997  0.04860033    -0.22700
H759        H  0.14611716  0.96111403  0.04409601     0.08400
C760        C  0.19646857  0.01319450  0.03346657     0.04700
C761        C  0.22737355  0.01329485  0.03421774    -0.19900
C762        C  0.24365168  0.99774831  0.00259924    -0.12200
C763        C  0.22867781  0.98237357  0.96864099     0.13500
C764        C  0.19779668  0.98211861  0.96825475    -0.22700
C765        C  0.17966618  0.03002040  0.06800567    -0.05700
H766        H  0.23888809  0.02529060  0.05987629     0.15000
C767        C  0.24431346  0.96707417  0.93125424    -0.15900
H768        H  0.18620611  0.97033501  0.94240809     0.09300
H769        H  0.09254401  0.95409537  0.08433104     0.07200
H770        H  0.09815062  0.92904401  0.03893545     0.08400
H771        H  0.06447447  0.94881743  0.04290952     0.07400
H772        H  0.16390689  0.02633609  0.91808438     0.02300
H773        H  0.16253858  0.05284165  0.96254196     0.02800
H774        H  0.13355294  0.05154188  0.92202945     0.06300
H775        H  0.19466853  0.04135159  0.09147995     0.05300
H776        H  0.16552918  0.01475816  0.08709670    -0.00500
H777        H  0.16559270  0.04685001  0.05192358     0.01000
H778        H  0.23927738  0.94322856  0.93219258     0.04600
H779        H  0.26851028  0.96989783  0.93203053     0.06600
H780        H  0.23646312  0.97616920  0.89934270     0.07400
loop_ 
_geom_bond_atom_site_label_1 
_geom_bond_atom_site_label_2 
_geom_bond_distance 
_geom_bond_site_symmetry_2 
_ccdc_geom_bond_type 
O1           Ni9   1.920       .  S
O1           C11   1.282       .  A
O2           Ni9   1.917   1_556  S
O2           C12   1.281       .  A
O3           Ni9   1.913       .  S
O3           C13   1.280       .  A
O4           Ni9   1.916       .  S
O4           C14   1.281       .  A
O5          Ni10   1.916       .  S
O5           C14   1.281   1_545  A
O6          Ni10   1.918       .  S
O6           C13   1.281   1_545  A
O7          Ni10   1.915   1_556  S
O7           C12   1.281   1_545  A
O8          Ni10   1.915       .  S
O8           C11   1.280   1_545  A
Ni9         Ni10   2.391   1_565  S
C11         C721   1.476       .  S
C12         C698   1.474       .  S
C13         C666   1.476       .  S
C14         C762   1.473       .  S
O15         Ni23   1.918       .  S
O15          C25   1.281       .  A
O16         Ni23   1.916       .  S
O16          C26   1.281   1_565  A
O17         Ni23   1.915       .  S
O17          C27   1.280       .  A
O18         Ni23   1.917       .  S
O18          C28   1.282   1_565  A
O19         Ni24   1.914       .  S
O19          C28   1.280       .  A
O20         Ni24   1.914       .  S
O20          C27   1.280   1_545  A
O21         Ni24   1.918       .  S
O21          C26   1.281       .  A
O22         Ni24   1.917       .  S
O22          C25   1.282   1_545  A
Ni23        Ni24   2.387   1_565  S
C25         C730   1.482       .  S
C26         C689   1.478       .  S
C27         C634   1.469       .  S
C28         C593   1.486       .  S
O29         Ni37   1.918       .  S
O29          C39   1.282   1_455  A
O30         Ni37   1.919   1_556  S
O30          C40   1.281       .  A
O31         Ni37   1.917       .  S
O31          C41   1.281   1_455  A
O32         Ni37   1.916   1_556  S
O32          C42   1.281   1_455  A
O33         Ni38   1.917       .  S
O33          C42   1.281       .  A
O34         Ni38   1.915   1_554  S
O34          C41   1.281       .  A
O35         Ni38   1.916       .  S
O35          C40   1.281   1_655  A
O36         Ni38   1.917   1_554  S
O36          C39   1.281       .  A
Ni37        Ni38   2.388   1_454  S
C39         C529   1.483       .  S
C40         C497   1.478       .  S
C41         C561   1.481       .  S
C42         C465   1.478       .  S
O43         Ni51   1.915       .  S
O43          C53   1.280   1_455  A
O44         Ni51   1.917       .  S
O44          C54   1.281       .  A
O45         Ni51   1.922       .  S
O45          C55   1.284   1_455  A
O46         Ni51   1.921       .  S
O46          C56   1.282       .  A
O47         Ni52   1.916       .  S
O47          C56   1.281   1_655  A
O48         Ni52   1.915       .  S
O48          C55   1.280       .  A
O49         Ni52   1.919       .  S
O49          C54   1.282   1_655  A
O50         Ni52   1.918       .  S
O50          C53   1.281       .  A
Ni51        Ni52   2.386   1_455  S
C53         C538   1.473       .  S
C54         C506   1.481       .  S
C55         C401   1.497       .  S
C56         C433   1.482       .  S
O57         Ni65   1.917   1_554  S
O57          C67   1.281   1_545  A
O58         Ni65   1.919       .  S
O58          C68   1.282       .  A
O59         Ni65   1.915       .  S
O59          C69   1.280   1_545  A
O60         Ni65   1.915       .  S
O60          C70   1.280       .  A
O61         Ni66   1.913       .  S
O61          C70   1.281   1_565  A
O62         Ni66   1.913       .  S
O62          C69   1.280       .  A
O63         Ni66   1.918       .  S
O63          C68   1.281   1_565  A
O64         Ni66   1.916   1_554  S
O64          C67   1.281       .  A
Ni65        Ni66   2.388   1_545  S
C67         C337   1.478       .  S
C68         C305   1.489       .  S
C69         C657   1.473       .  S
C70         C369   1.477   1_556  S
O71         Ni79   1.915       .  S
O71          C81   1.280       .  A
O72         Ni79   1.916       .  S
O72          C82   1.281       .  A
O73         Ni79   1.917       .  S
O73          C83   1.281       .  A
O74         Ni79   1.916       .  S
O74          C84   1.280       .  A
O75         Ni80   1.915       .  S
O75          C84   1.280   1_565  A
O76         Ni80   1.917       .  S
O76          C83   1.281   1_565  A
O77         Ni80   1.919       .  S
O77          C82   1.282   1_565  A
O78         Ni80   1.918       .  S
O78          C81   1.281   1_565  A
Ni79        Ni80   2.391   1_545  S
C81         C346   1.475       .  S
C82         C314   1.476       .  S
C83         C282   1.475       .  S
C84         C602   1.471       .  S
O85         Ni93   1.917       .  S
O85          C95   1.281       .  A
O86         Ni93   1.919   1_455  S
O86          C96   1.281       .  A
O87         Ni93   1.920       .  S
O87          C97   1.281       .  A
O88         Ni93   1.921   1_545  S
O88          C98   1.283       .  A
O89         Ni94   1.915   1_545  S
O89          C98   1.280   1_554  A
O90         Ni94   1.914       .  S
O90          C97   1.281   1_554  A
O91         Ni94   1.914   1_455  S
O91          C96   1.280   1_554  A
O92         Ni94   1.911       .  S
O92          C95   1.280   1_554  A
Ni93        Ni94   2.386   1_556  S
C95         C378   1.475       .  S
C96         C753   1.476       .  S
C97         C570   1.486       .  S
C98         C241   1.490   1_655  S
O99        Ni107   1.915   1_645  S
O99         C109   1.281       .  A
O100       Ni107   1.915       .  S
O100        C110   1.281       .  A
O101       Ni107   1.918       .  S
O101        C111   1.281       .  A
O102       Ni107   1.914   1_545  S
O102        C112   1.281       .  A
O103       Ni108   1.922   1_545  S
O103        C112   1.282       .  A
O104       Ni108   1.919       .  S
O104        C111   1.281       .  A
O105       Ni108   1.915       .  S
O105        C110   1.280       .  A
O106       Ni108   1.918   1_645  S
O106        C109   1.281       .  A
Ni107      Ni108   2.391       .  S
C109        C273   1.474       .  S
C110        C625   1.472       .  S
C111        C442   1.477       .  S
C112        C209   1.480       .  S
O113       Ni121   1.919   1_554  S
O113        C123   1.281       .  A
O114       Ni121   1.917       .  S
O114        C124   1.282   1_655  A
O115       Ni121   1.917       .  S
O115        C125   1.282   1_655  A
O116       Ni121   1.916       .  S
O116        C126   1.281       .  A
O117       Ni122   1.917       .  S
O117        C126   1.281   1_454  A
O118       Ni122   1.921       .  S
O118        C125   1.282   1_554  A
O119       Ni122   1.916   1_556  S
O119        C124   1.281       .  A
O120       Ni122   1.916       .  S
O120        C123   1.281   1_455  A
Ni121      Ni122   2.388   1_656  S
C123        C177   1.477       .  S
C124        C145   1.479       .  S
C125        C250   1.488       .  S
C126        C474   1.478       .  S
O127       Ni135   1.920       .  S
O127        C137   1.282       .  A
O128       Ni135   1.916       .  S
O128        C138   1.281   1_655  A
O129       Ni135   1.918       .  S
O129        C139   1.280       .  A
O130       Ni135   1.917       .  S
O130        C140   1.281   1_655  A
O131       Ni136   1.919       .  S
O131        C140   1.281       .  A
O132       Ni136   1.918       .  S
O132        C139   1.281   1_455  A
O133       Ni136   1.919       .  S
O133        C138   1.282       .  A
O134       Ni136   1.916       .  S
O134        C137   1.281   1_455  A
Ni135      Ni136   2.390   1_655  S
C137        C186   1.479       .  S
C138        C154   1.479       .  S
C139        C410   1.471       .  S
C140        C218   1.477       .  S
C141        C142   1.399   1_655  A
C141        C146   1.402       .  A
C141        H151   1.085       .  S
C142        C147   1.480       .  S
C142        C143   1.409       .  A
C143        C144   1.404       .  A
C143        C148   1.506       .  S
C144        C145   1.406       .  A
C144        H149   1.084       .  S
C145        C146   1.419   1_455  A
C146        C150   1.509       .  S
C147        C152   1.409   1_455  A
C147        C156   1.400       .  A
C148        H164   1.110       .  S
C148        H165   1.110       .  S
C148        H166   1.111       .  S
C150        H161   1.110       .  S
C150        H162   1.111       .  S
C150        H163   1.106       .  S
C152        C153   1.403       .  A
C152        C157   1.506       .  S
C153        C154   1.405   1_655  A
C153        H158   1.084       .  S
C154        C155   1.419       .  A
C155        C156   1.403       .  A
C155        C159   1.509       .  S
C156        H160   1.085       .  S
C157        H167   1.111       .  S
C157        H168   1.110       .  S
C157        H169   1.110       .  S
C159        H170   1.111       .  S
C159        H171   1.106       .  S
C159        H172   1.110       .  S
C173        C174   1.400   1_455  A
C173        C178   1.402       .  A
C173        H183   1.085       .  S
C174        C179   1.480       .  S
C174        C175   1.410       .  A
C175        C176   1.405       .  A
C175        C180   1.506       .  S
C176        C177   1.404       .  A
C176        H181   1.084       .  S
C177        C178   1.417   1_655  A
C178        C182   1.509       .  S
C179        C184   1.410   1_655  A
C179        C188   1.400       .  A
C180        H196   1.110       .  S
C180        H197   1.110       .  S
C180        H198   1.111       .  S
C182        H193   1.110       .  S
C182        H194   1.111       .  S
C182        H195   1.107       .  S
C184        C185   1.403       .  A
C184        C189   1.506       .  S
C185        C186   1.405   1_455  A
C185        H190   1.084       .  S
C186        C187   1.419       .  A
C187        C188   1.404       .  A
C187        C191   1.509       .  S
C188        H192   1.085       .  S
C189        H199   1.111       .  S
C189        H200   1.110       .  S
C189        H201   1.110       .  S
C191        H202   1.111       .  S
C191        H203   1.106       .  S
C191        H204   1.110       .  S
C205        C206   1.401       .  A
C205        C210   1.405       .  A
C205        H215   1.085       .  S
C206        C211   1.483       .  S
C206        C207   1.410   1_455  A
C207        C208   1.402       .  A
C207        C212   1.507       .  S
C208        C209   1.405   1_655  A
C208        H213   1.084       .  S
C209        C210   1.419       .  A
C210        C214   1.509       .  S
C211        C216   1.410   1_455  A
C211        C220   1.402       .  A
C212        H228   1.110       .  S
C212        H229   1.110       .  S
C212        H230   1.111       .  S
C214        H225   1.110       .  S
C214        H226   1.111       .  S
C214        H227   1.106       .  S
C216        C217   1.403       .  A
C216        C221   1.506       .  S
C217        C218   1.404   1_655  A
C217        H222   1.084       .  S
C218        C219   1.417       .  A
C219        C220   1.404       .  A
C219        C223   1.508       .  S
C220        H224   1.084       .  S
C221        H231   1.111       .  S
C221        H232   1.110       .  S
C221        H233   1.110       .  S
C223        H234   1.110       .  S
C223        H235   1.106       .  S
C223        H236   1.111       .  S
C237        C238   1.399   1_454  A
C237        C242   1.404       .  A
C237        H247   1.084       .  S
C238        C243   1.481       .  S
C238        C239   1.409       .  A
C239        C240   1.405       .  A
C239        C244   1.506       .  S
C240        C241   1.408   1_655  A
C240        H245   1.084       .  S
C241        C242   1.421   1_556  A
C242        C246   1.508       .  S
C243        C248   1.409   1_556  A
C243        C252   1.400   1_655  A
C244        H260   1.110       .  S
C244        H261   1.110       .  S
C244        H262   1.111       .  S
C246        H257   1.109       .  S
C246        H258   1.111       .  S
C246        H259   1.111       .  S
C248        C249   1.404       .  A
C248        C253   1.507       .  S
C249        C250   1.408   1_654  A
C249        H254   1.084       .  S
C250        C251   1.420       .  A
C251        C252   1.406       .  A
C251        C255   1.508       .  S
C252        H256   1.084       .  S
C253        H263   1.111       .  S
C253        H264   1.110       .  S
C253        H265   1.110       .  S
C255        H266   1.110       .  S
C255        H267   1.111       .  S
C255        H268   1.111       .  S
C269        C270   1.400       .  A
C269        C274   1.402       .  A
C269        H279   1.085       .  S
C270        C275   1.480       .  S
C270        C271   1.410   1_545  A
C271        C272   1.404       .  A
C271        C276   1.506       .  S
C272        C273   1.404   1_565  A
C272        H277   1.084       .  S
C273        C274   1.417       .  A
C274        C278   1.508       .  S
C275        C280   1.410       .  A
C275        C284   1.401   1_545  A
C276        H292   1.110       .  S
C276        H293   1.110       .  S
C276        H294   1.111       .  S
C278        H289   1.111       .  S
C278        H290   1.110       .  S
C278        H291   1.106       .  S
C280        C281   1.402       .  A
C280        C285   1.506       .  S
C281        C282   1.404       .  A
C281        H286   1.084       .  S
C282        C283   1.417   1_545  A
C283        C284   1.404       .  A
C283        C287   1.508       .  S
C284        H288   1.085       .  S
C285        H295   1.111       .  S
C285        H296   1.110       .  S
C285        H297   1.110       .  S
C287        H298   1.111       .  S
C287        H299   1.107       .  S
C287        H300   1.110       .  S
C301        C302   1.399   1_565  A
C301        C306   1.404       .  A
C301        H311   1.084       .  S
C302        C307   1.482       .  S
C302        C303   1.409       .  A
C303        C304   1.405       .  A
C303        C308   1.506       .  S
C304        C305   1.408       .  A
C304        H309   1.084       .  S
C305        C306   1.420   1_545  A
C306        C310   1.508       .  S
C307        C312   1.411   1_545  A
C307        C316   1.400       .  A
C308        H324   1.110       .  S
C308        H325   1.110       .  S
C308        H326   1.111       .  S
C310        H321   1.109       .  S
C310        H322   1.111       .  S
C310        H323   1.111       .  S
C312        C313   1.404       .  A
C312        C317   1.506       .  S
C313        C314   1.404   1_565  A
C313        H318   1.084       .  S
C314        C315   1.418       .  A
C315        C316   1.403       .  A
C315        C319   1.509       .  S
C316        H320   1.085       .  S
C317        H327   1.111       .  S
C317        H328   1.110       .  S
C317        H329   1.110       .  S
C319        H330   1.111       .  S
C319        H331   1.106       .  S
C319        H332   1.110       .  S
C333        C334   1.400   1_545  A
C333        C338   1.403       .  A
C333        H343   1.085       .  S
C334        C339   1.479       .  S
C334        C335   1.410       .  A
C335        C336   1.403       .  A
C335        C340   1.507       .  S
C336        C337   1.405       .  A
C336        H341   1.084       .  S
C337        C338   1.418   1_565  A
C338        C342   1.509       .  S
C339        C344   1.410   1_565  A
C339        C348   1.400       .  A
C340        H356   1.110       .  S
C340        H357   1.109       .  S
C340        H358   1.111       .  S
C342        H353   1.110       .  S
C342        H354   1.111       .  S
C342        H355   1.106       .  S
C344        C345   1.403       .  A
C344        C349   1.507       .  S
C345        C346   1.404       .  A
C345        H350   1.084       .  S
C346        C347   1.417   1_545  A
C347        C348   1.403       .  A
C347        C351   1.509       .  S
C348        H352   1.085       .  S
C349        H359   1.111       .  S
C349        H360   1.110       .  S
C349        H361   1.109       .  S
C351        H362   1.111       .  S
C351        H363   1.107       .  S
C351        H364   1.110       .  S
C365        C366   1.399   1_554  A
C365        C370   1.403       .  A
C365        H375   1.085       .  S
C366        C371   1.476       .  S
C366        C367   1.409   1_545  A
C367        C368   1.401       .  A
C367        C372   1.507       .  S
C368        C369   1.405   1_566  A
C368        H373   1.084       .  S
C369        C370   1.419       .  A
C370        C374   1.509       .  S
C371        C376   1.409       .  A
C371        C380   1.399   1_546  A
C372        H388   1.110       .  S
C372        H389   1.110       .  S
C372        H390   1.111       .  S
C374        H385   1.110       .  S
C374        H386   1.111       .  S
C374        H387   1.106       .  S
C376        C377   1.403       .  A
C376        C381   1.506       .  S
C377        C378   1.405   1_545  A
C377        H382   1.084       .  S
C378        C379   1.419   1_556  A
C379        C380   1.401       .  A
C379        C383   1.509       .  S
C380        H384   1.085       .  S
C381        H391   1.111       .  S
C381        H392   1.110       .  S
C381        H393   1.110       .  S
C383        H394   1.110       .  S
C383        H395   1.106       .  S
C383        H396   1.111       .  S
C397        C398   1.399       .  A
C397        C402   1.406       .  A
C397        H407   1.084       .  S
C398        C403   1.484       .  S
C398        C399   1.409   1_655  A
C399        C400   1.403       .  A
C399        C404   1.507       .  S
C400        C401   1.410   1_455  A
C400        H405   1.083       .  S
C401        C402   1.425       .  A
C402        C406   1.508       .  S
C403        C408   1.412       .  A
C403        C412   1.402   1_655  A
C404        H420   1.110       .  S
C404        H421   1.110       .  S
C404        H422   1.111       .  S
C406        H417   1.110       .  S
C406        H418   1.111       .  S
C406        H419   1.110       .  S
C408        C409   1.405       .  A
C408        C413   1.506       .  S
C409        C410   1.402       .  A
C409        H414   1.085       .  S
C410        C411   1.415   1_655  A
C411        C412   1.403       .  A
C411        C415   1.508       .  S
C412        H416   1.085       .  S
C413        H423   1.111       .  S
C413        H424   1.110       .  S
C413        H425   1.110       .  S
C415        H426   1.110       .  S
C415        H427   1.107       .  S
C415        H428   1.110       .  S
C429        C430   1.401       .  A
C429        C434   1.405       .  A
C429        H439   1.084       .  S
C430        C435   1.482       .  S
C430        C431   1.409   1_455  A
C431        C432   1.403       .  A
C431        C436   1.507       .  S
C432        C433   1.406   1_655  A
C432        H437   1.084       .  S
C433        C434   1.420       .  A
C434        C438   1.509       .  S
C435        C440   1.410       .  A
C435        C444   1.401   1_455  A
C436        H452   1.110       .  S
C436        H453   1.110       .  S
C436        H454   1.111       .  S
C438        H449   1.110       .  S
C438        H450   1.111       .  S
C438        H451   1.105       .  S
C440        C441   1.405       .  A
C440        C445   1.506       .  S
C441        C442   1.405       .  A
C441        H446   1.084       .  S
C442        C443   1.417   1_455  A
C443        C444   1.403       .  A
C443        C447   1.508       .  S
C444        H448   1.084       .  S
C445        H455   1.111       .  S
C445        H456   1.110       .  S
C445        H457   1.110       .  S
C447        H458   1.110       .  S
C447        H459   1.107       .  S
C447        H460   1.111       .  S
C461        C462   1.400   1_454  A
C461        C466   1.402       .  A
C461        H471   1.085       .  S
C462        C467   1.479       .  S
C462        C463   1.409       .  A
C463        C464   1.403       .  A
C463        C468   1.506       .  S
C464        C465   1.406       .  A
C464        H469   1.084       .  S
C465        C466   1.419   1_656  A
C466        C470   1.509       .  S
C467        C472   1.409   1_655  A
C467        C476   1.400   1_556  A
C468        H484   1.110       .  S
C468        H485   1.110       .  S
C468        H486   1.111       .  S
C470        H481   1.110       .  S
C470        H482   1.111       .  S
C470        H483   1.105       .  S
C472        C473   1.404       .  A
C472        C477   1.506       .  S
C473        C474   1.406   1_455  A
C473        H478   1.084       .  S
C474        C475   1.418   1_556  A
C475        C476   1.402       .  A
C475        C479   1.509       .  S
C476        H480   1.085       .  S
C477        H487   1.111       .  S
C477        H488   1.110       .  S
C477        H489   1.110       .  S
C479        H490   1.111       .  S
C479        H491   1.106       .  S
C479        H492   1.110       .  S
C493        C494   1.400   1_655  A
C493        C498   1.402       .  A
C493        H503   1.085       .  S
C494        C499   1.481       .  S
C494        C495   1.410       .  A
C495        C496   1.405       .  A
C495        C500   1.506       .  S
C496        C497   1.405       .  A
C496        H501   1.084       .  S
C497        C498   1.418   1_455  A
C498        C502   1.509       .  S
C499        C504   1.410   1_455  A
C499        C508   1.400       .  A
C500        H516   1.110       .  S
C500        H517   1.110       .  S
C500        H518   1.111       .  S
C502        H513   1.110       .  S
C502        H514   1.111       .  S
C502        H515   1.106       .  S
C504        C505   1.403       .  A
C504        C509   1.506       .  S
C505        C506   1.405   1_655  A
C505        H510   1.084       .  S
C506        C507   1.420       .  A
C507        C508   1.405       .  A
C507        C511   1.509       .  S
C508        H512   1.084       .  S
C509        H519   1.111       .  S
C509        H520   1.110       .  S
C509        H521   1.110       .  S
C511        H522   1.111       .  S
C511        H523   1.106       .  S
C511        H524   1.110       .  S
C525        C526   1.400       .  A
C525        C530   1.405       .  A
C525        H535   1.084       .  S
C526        C531   1.480       .  S
C526        C527   1.409   1_655  A
C527        C528   1.403       .  A
C527        C532   1.507       .  S
C528        C529   1.406   1_455  A
C528        H533   1.084       .  S
C529        C530   1.418       .  A
C530        C534   1.508       .  S
C531        C536   1.410   1_655  A
C531        C540   1.401       .  A
C532        H548   1.110       .  S
C532        H549   1.110       .  S
C532        H550   1.111       .  S
C534        H545   1.111       .  S
C534        H546   1.109       .  S
C534        H547   1.111       .  S
C536        C537   1.402       .  A
C536        C541   1.507       .  S
C537        C538   1.403   1_455  A
C537        H542   1.084       .  S
C538        C539   1.417       .  A
C539        C540   1.404       .  A
C539        C543   1.508       .  S
C540        H544   1.084       .  S
C541        H551   1.111       .  S
C541        H552   1.110       .  S
C541        H553   1.110       .  S
C543        H554   1.110       .  S
C543        H555   1.106       .  S
C543        H556   1.111       .  S
C557        C558   1.401   1_455  A
C557        C562   1.404       .  A
C557        H567   1.084       .  S
C558        C563   1.480       .  S
C558        C559   1.409   1_554  A
C559        C560   1.403       .  A
C559        C564   1.506       .  S
C560        C561   1.406   1_556  A
C560        H565   1.084       .  S
C561        C562   1.417   1_655  A
C562        C566   1.508       .  S
C563        C568   1.409       .  A
C563        C572   1.400   1_654  A
C564        H580   1.110       .  S
C564        H581   1.110       .  S
C564        H582   1.111       .  S
C566        H577   1.111       .  S
C566        H578   1.109       .  S
C566        H579   1.111       .  S
C568        C569   1.403       .  A
C568        C573   1.507       .  S
C569        C570   1.408   1_554  A
C569        H574   1.083       .  S
C570        C571   1.419   1_655  A
C571        C572   1.404       .  A
C571        C575   1.507       .  S
C572        H576   1.084       .  S
C573        H583   1.111       .  S
C573        H584   1.110       .  S
C573        H585   1.110       .  S
C575        H586   1.111       .  S
C575        H587   1.111       .  S
C575        H588   1.110       .  S
C589        C590   1.398       .  A
C589        C594   1.403       .  A
C589        H599   1.085       .  S
C590        C595   1.478       .  S
C590        C591   1.407   1_545  A
C591        C592   1.402       .  A
C591        C596   1.507       .  S
C592        C593   1.408   1_565  A
C592        H597   1.084       .  S
C593        C594   1.424       .  A
C594        C598   1.510       .  S
C595        C600   1.410       .  A
C595        C604   1.400   1_545  A
C596        H612   1.110       .  S
C596        H613   1.110       .  S
C596        H614   1.111       .  S
C598        H609   1.110       .  S
C598        H610   1.111       .  S
C598        H611   1.101       .  S
C600        C601   1.403       .  A
C600        C605   1.506       .  S
C601        C602   1.403       .  A
C601        H606   1.084       .  S
C602        C603   1.416   1_545  A
C603        C604   1.402       .  A
C603        C607   1.509       .  S
C604        H608   1.085       .  S
C605        H615   1.111       .  S
C605        H616   1.110       .  S
C605        H617   1.110       .  S
C607        H618   1.111       .  S
C607        H619   1.107       .  S
C607        H620   1.110       .  S
C621        C622   1.400   1_545  A
C621        C626   1.401       .  A
C621        H631   1.085       .  S
C622        C627   1.477       .  S
C622        C623   1.410       .  A
C623        C624   1.403       .  A
C623        C628   1.506       .  S
C624        C625   1.403       .  A
C624        H629   1.084       .  S
C625        C626   1.416   1_565  A
C626        C630   1.509       .  S
C627        C632   1.410       .  A
C627        C636   1.400   1_565  A
C628        H644   1.110       .  S
C628        H645   1.110       .  S
C628        H646   1.111       .  S
C630        H641   1.110       .  S
C630        H642   1.111       .  S
C630        H643   1.107       .  S
C632        C633   1.403       .  A
C632        C637   1.506       .  S
C633        C634   1.402       .  A
C633        H638   1.084       .  S
C634        C635   1.415   1_565  A
C635        C636   1.401       .  A
C635        C639   1.509       .  S
C636        H640   1.085       .  S
C637        H647   1.111       .  S
C637        H648   1.110       .  S
C637        H649   1.110       .  S
C639        H650   1.110       .  S
C639        H651   1.107       .  S
C639        H652   1.111       .  S
C653        C654   1.399   1_554  A
C653        C658   1.401       .  A
C653        H663   1.085       .  S
C654        C659   1.476       .  S
C654        C655   1.409   1_565  A
C655        C656   1.403       .  A
C655        C660   1.506       .  S
C656        C657   1.404   1_545  A
C656        H661   1.084       .  S
C657        C658   1.418   1_556  A
C658        C662   1.509       .  S
C659        C664   1.408       .  A
C659        C668   1.400   1_566  A
C660        H676   1.110       .  S
C660        H677   1.110       .  S
C660        H678   1.111       .  S
C662        H673   1.110       .  S
C662        H674   1.111       .  S
C662        H675   1.106       .  S
C664        C665   1.402       .  A
C664        C669   1.507       .  S
C665        C666   1.405   1_556  A
C665        H670   1.084       .  S
C666        C667   1.418   1_565  A
C667        C668   1.402       .  A
C667        C671   1.509       .  S
C668        H672   1.085       .  S
C669        H679   1.111       .  S
C669        H680   1.110       .  S
C669        H681   1.110       .  S
C671        H682   1.111       .  S
C671        H683   1.106       .  S
C671        H684   1.110       .  S
C685        C686   1.400   1_545  A
C685        C690   1.404       .  A
C685        H695   1.084       .  S
C686        C691   1.479       .  S
C686        C687   1.410       .  A
C687        C688   1.403       .  A
C687        C692   1.506       .  S
C688        C689   1.404   1_565  A
C688        H693   1.084       .  S
C689        C690   1.415       .  A
C690        C694   1.506       .  S
C691        C696   1.410       .  A
C691        C700   1.400   1_565  A
C692        H708   1.110       .  S
C692        H709   1.110       .  S
C692        H710   1.111       .  S
C694        H705   1.111       .  S
C694        H706   1.109       .  S
C694        H707   1.110       .  S
C696        C697   1.403       .  A
C696        C701   1.506       .  S
C697        C698   1.404       .  A
C697        H702   1.084       .  S
C698        C699   1.418   1_565  A
C699        C700   1.402       .  A
C699        C703   1.509       .  S
C700        H704   1.085       .  S
C701        H711   1.111       .  S
C701        H712   1.110       .  S
C701        H713   1.110       .  S
C703        H714   1.110       .  S
C703        H715   1.106       .  S
C703        H716   1.111       .  S
C717        C718   1.401       .  A
C717        C722   1.403       .  A
C717        H727   1.085       .  S
C718        C723   1.480       .  S
C718        C719   1.410   1_545  A
C719        C720   1.404       .  A
C719        C724   1.506       .  S
C720        C721   1.404       .  A
C720        H725   1.084       .  S
C721        C722   1.417   1_565  A
C722        C726   1.508       .  S
C723        C728   1.409       .  A
C723        C732   1.400   1_545  A
C724        H740   1.110       .  S
C724        H741   1.110       .  S
C724        H742   1.111       .  S
C726        H737   1.110       .  S
C726        H738   1.111       .  S
C726        H739   1.106       .  S
C728        C729   1.404       .  A
C728        C733   1.506       .  S
C729        C730   1.406   1_545  A
C729        H734   1.084       .  S
C730        C731   1.420       .  A
C731        C732   1.404       .  A
C731        C735   1.509       .  S
C732        H736   1.085       .  S
C733        H743   1.111       .  S
C733        H744   1.110       .  S
C733        H745   1.110       .  S
C735        H746   1.111       .  S
C735        H747   1.105       .  S
C735        H748   1.110       .  S
C749        C750   1.400   1_554  A
C749        C754   1.403       .  A
C749        H759   1.085       .  S
C750        C755   1.479   1_556  S
C750        C751   1.410   1_565  A
C751        C752   1.403       .  A
C751        C756   1.506       .  S
C752        C753   1.404   1_545  A
C752        H757   1.084       .  S
C753        C754   1.418   1_556  A
C754        C758   1.509       .  S
C755        C760   1.410   1_565  A
C755        C764   1.400   1_554  A
C756        H772   1.110       .  S
C756        H773   1.110       .  S
C756        H774   1.111       .  S
C758        H769   1.110       .  S
C758        H770   1.111       .  S
C758        H771   1.107       .  S
C760        C761   1.403       .  A
C760        C765   1.506       .  S
C761        C762   1.403   1_545  A
C761        H766   1.084       .  S
C762        C763   1.417   1_554  A
C763        C764   1.402       .  A
C763        C767   1.509       .  S
C764        H768   1.085       .  S
C765        H775   1.111       .  S
C765        H776   1.110       .  S
C765        H777   1.110       .  S
C767        H778   1.110       .  S
C767        H779   1.106       .  S
C767        H780   1.111       .  S
