geometry optimzed in LAMMPS
_audit_creation_date              2020-11-30 
_audit_creation_method            'lammps2cif' 
_symmetry_space_group_name_H-M    'P1' 
_symmetry_Int_Tables_number       1 
_symmetry_cell_setting            triclinic 
loop_ 
_symmetry_equiv_pos_as_xyz 
  x,y,z 
_cell_length_a                    87.32996743 
_cell_length_b                    87.49874653556978 
_cell_length_c                    87.30575309763928 
_cell_angle_alpha                 90.03147714452042 
_cell_angle_beta                  89.98087197144281 
_cell_angle_gamma                 90.15387737535927 
loop_ 
_atom_site_label 
_atom_site_type_symbol 
_atom_site_fract_x 
_atom_site_fract_y 
_atom_site_fract_z 
_atom_site_charge 
N1          N  0.61266754  0.15737732  0.81000872    -0.25800
N2          N  0.61769160  0.17131767  0.80700402    -0.33700
C3          C  0.62121347  0.17221736  0.79201367     0.02500
C4          C  0.61817421  0.15816372  0.78529178     0.08500
C5          C  0.61279119  0.14907255  0.79708288    -0.04600
H6          H  0.62564444  0.18234404  0.78646505     0.09200
H7          H  0.60968382  0.13711841  0.79646848     0.10400
Cu8        Cu  0.61951782  0.18833177  0.82353659     0.44200
Cu9        Cu  0.60662850  0.14968379  0.83153541     0.42000
Cu10       Cu  0.60878652  0.17711175  0.86210373     0.43900
N11         N  0.61870099  0.20327427  0.84203901    -0.33200
N12         N  0.61468508  0.19918853  0.85604902    -0.27500
C13         C  0.61480575  0.21157213  0.86517969    -0.03600
C14         C  0.61903220  0.22412813  0.85649392     0.08600
C15         C  0.62146881  0.21839092  0.84188432     0.02400
H16         H  0.61166344  0.21145218  0.87715730     0.10100
H17         H  0.62502070  0.22469869  0.83184925     0.09200
N18         N  0.60374048  0.15426672  0.86543067    -0.34700
N19         N  0.60277007  0.14419122  0.85420316    -0.26800
C20         C  0.60016322  0.13026617  0.86017492    -0.02100
C21         C  0.59955882  0.13166129  0.87595074     0.06500
C22         C  0.60184366  0.14704733  0.87886518     0.04600
H23         H  0.59956648  0.11982750  0.85357108     0.09700
H24         H  0.60244777  0.15256760  0.88992875     0.08600
N25         N  0.84614523  0.13996058  0.58233233    -0.25800
N26         N  0.84115919  0.15407250  0.58030713    -0.33700
C27         C  0.82574988  0.15407446  0.58104154     0.02500
C28         C  0.82075411  0.13925426  0.58374539     0.08500
C29         C  0.83405303  0.13064554  0.58440250    -0.04600
H30         H  0.81878133  0.16424989  0.58046173     0.09200
H31         H  0.83496077  0.11851360  0.58652517     0.10400
Cu32       Cu  0.85557274  0.17291208  0.57825117     0.44200
Cu33       Cu  0.86916961  0.13383689  0.58340789     0.42000
Cu34       Cu  0.89633417  0.16449072  0.58085785     0.43900
N35         N  0.87259181  0.18955709  0.57902299    -0.33200
N36         N  0.88736254  0.18643742  0.58003390    -0.27500
C37         C  0.89520863  0.19957471  0.58168576    -0.03600
C38         C  0.88492108  0.21160433  0.58178892     0.08600
C39         C  0.87067693  0.20478928  0.57998881     0.02400
H40         H  0.90749370  0.20023119  0.58309800     0.10100
H41         H  0.85966025  0.21038676  0.58022405     0.09200
N42         N  0.90274954  0.14177851  0.58334140    -0.34700
N43         N  0.89277434  0.13044145  0.58428275    -0.26800
C44         C  0.90045509  0.11718211  0.58571574    -0.02100
C45         C  0.91606047  0.12031164  0.58572542     0.06500
C46         C  0.91702148  0.13606826  0.58421690     0.04600
H47         H  0.89505293  0.10610605  0.58678212     0.09700
H48         H  0.92733489  0.14288556  0.58348427     0.08600
N49         N  0.85302580  0.40765830  0.85943647    -0.25800
N50         N  0.84935555  0.40596104  0.84488537    -0.33700
C51         C  0.83407633  0.40508891  0.84359411     0.02500
C52         C  0.82759885  0.40661558  0.85805366     0.08500
C53         C  0.84011326  0.40819100  0.86780949    -0.04600
H54         H  0.82829844  0.40347475  0.83279132     0.09200
H55         H  0.84001597  0.40996462  0.88004500     0.10400
Cu56       Cu  0.86502319  0.40667792  0.82721059     0.44200
Cu57       Cu  0.87549983  0.40893814  0.86698179     0.42000
Cu58       Cu  0.90462172  0.41234282  0.83730390     0.43900
N59         N  0.88210717  0.41071280  0.81137316    -0.33200
N60         N  0.89662411  0.41291258  0.81500991    -0.27500
C61         C  0.90485654  0.41445201  0.80208356    -0.03600
C62         C  0.89500007  0.41319426  0.78971155     0.08600
C63         C  0.88066510  0.41088421  0.79606884     0.02400
H64         H  0.91713980  0.41595310  0.80175805     0.10100
H65         H  0.87007796  0.40867695  0.79003639     0.09200
N66         N  0.90945449  0.40967624  0.86035123    -0.34700
N67         N  0.89887806  0.40848099  0.87112049    -0.26800
C68         C  0.90579019  0.40657078  0.88473019    -0.02100
C69         C  0.92149048  0.40655256  0.88244411     0.06500
C70         C  0.92337542  0.40853467  0.86682106     0.04600
H71         H  0.89977710  0.40502557  0.89544239     0.09700
H72         H  0.93405052  0.40926814  0.86059249     0.14600
N73         N  0.64340523  0.35796227  0.88786005    -0.25800
N74         N  0.65781062  0.35348689  0.88714948    -0.33700
C75         C  0.65821507  0.33833296  0.88476871     0.02500
C76         C  0.64331242  0.33294796  0.88392915     0.08500
C77         C  0.63420317  0.34573036  0.88602592    -0.04600
H78         H  0.66862836  0.33178926  0.88348047     0.09200
H79         H  0.62185091  0.34623921  0.88554387     0.10400
Cu80       Cu  0.67616929  0.36840980  0.88800651     0.44200
Cu81       Cu  0.63736756  0.38075152  0.88974879     0.42000
Cu82       Cu  0.66834556  0.40906133  0.88724933     0.43900
N83         N  0.69293347  0.38503105  0.88629489    -0.33200
N84         N  0.69024434  0.39987571  0.88575305    -0.27500
C85         C  0.70360357  0.40728278  0.88351777    -0.03600
C86         C  0.71522319  0.39653568  0.88253168     0.08600
C87         C  0.70797997  0.38258083  0.88444500     0.02400
H88         H  0.70466102  0.41951232  0.88211377     0.10100
H89         H  0.71318081  0.37137886  0.88428372     0.09200
N90         N  0.64521264  0.41447849  0.88891442    -0.34700
N91         N  0.63413739  0.40419374  0.88990588    -0.26800
C92         C  0.62058319  0.41138431  0.89054116    -0.02100
C93         C  0.62314800  0.42699696  0.88994242     0.06500
C94         C  0.63894133  0.42851655  0.88891393     0.04600
H95         H  0.60966233  0.40558181  0.89096069     0.09700
H96         H  0.64545122  0.43901002  0.88829221     0.08600
N97         N  0.91015769  0.34650205  0.60879350    -0.25800
N98         N  0.90649084  0.34297778  0.62305218    -0.33700
C99         C  0.90272227  0.32807757  0.62371301     0.02500
C100        C  0.90415594  0.32189133  0.60917436     0.08500
C101        C  0.90890717  0.33392373  0.60001743    -0.04600
H102        H  0.89946056  0.32214181  0.63408303     0.09200
H103        H  0.91109527  0.33363814  0.58783428     0.10400
Cu104      Cu  0.90718692  0.35848548  0.64102157     0.44200
Cu105      Cu  0.91642090  0.36829342  0.60182430     0.42000
Cu106      Cu  0.91760053  0.39736016  0.63132126     0.43900
N107        N  0.90962616  0.37587057  0.65700117    -0.33200
N108        N  0.91359890  0.39002053  0.65347218    -0.27500
C109        C  0.91428358  0.39841624  0.66635747    -0.03600
C110        C  0.91048940  0.38911188  0.67860574     0.08600
C111        C  0.90760875  0.37489356  0.67222982     0.02400
H112        H  0.91698260  0.41047313  0.66670401     0.10100
H113        H  0.90438029  0.36454757  0.67820017     0.09200
N114        N  0.92113942  0.40178094  0.60832620    -0.34700
N115        N  0.92095701  0.39117402  0.59756341    -0.26800
C116        C  0.92314516  0.39786461  0.58387245    -0.02100
C117        C  0.92468520  0.41350552  0.58609000     0.06500
C118        C  0.92335724  0.41550158  0.60179033     0.04600
H119        H  0.92336254  0.39173606  0.57313729     0.09700
H120        H  0.92331436  0.42617397  0.60801704     0.08600
N121        N  0.69036618  0.09942559  0.61573646    -0.25800
N122        N  0.69379151  0.10425063  0.62966471    -0.33700
C123        C  0.70848300  0.10888282  0.62989159     0.02500
C124        C  0.71462089  0.10687020  0.61538807     0.08500
C125        C  0.70279392  0.10078122  0.60674255    -0.04600
H126        H  0.71415336  0.11363162  0.63982982     0.09200
H127        H  0.70295798  0.09822150  0.59462994     0.10400
Cu128      Cu  0.67795959  0.10562293  0.64731161     0.44200
Cu129      Cu  0.66859602  0.09268912  0.60918938     0.42000
Cu130      Cu  0.63847052  0.09747136  0.63731947     0.43900
N131        N  0.65973275  0.10829143  0.66228532    -0.33200
N132        N  0.64529004  0.10571786  0.65853377    -0.27500
C133        C  0.63625794  0.10969465  0.67036002    -0.03600
C134        C  0.64547505  0.11494320  0.68216026     0.08600
C135        C  0.66028901  0.11383637  0.67663672     0.02400
H136        H  0.62390154  0.10892633  0.67029899     0.10100
H137        H  0.67067736  0.11740981  0.68236817     0.09200
N138        N  0.63473715  0.08969278  0.61518132    -0.34700
N139        N  0.64574889  0.08797493  0.60495387    -0.26800
C140        C  0.63954382  0.08358258  0.59157228    -0.02100
C141        C  0.62381746  0.08244799  0.59340525     0.06500
C142        C  0.62121491  0.08638694  0.60858001     0.04600
H143        H  0.64598662  0.08204172  0.58112164     0.09700
H144        H  0.61032085  0.08704349  0.61440013     0.08600
N145        N  0.19333159  0.42149317  0.86392355    -0.25800
N146        N  0.19708637  0.42233305  0.84930092    -0.33700
C147        C  0.21241945  0.42258479  0.84807458     0.02500
C148        C  0.21870705  0.42186273  0.86265444     0.08500
C149        C  0.20616567  0.42132385  0.87240964    -0.04600
H150        H  0.21846539  0.42216865  0.83728402     0.09200
H151        H  0.20624215  0.42021279  0.88472986     0.10400
Cu152      Cu  0.18140330  0.42060778  0.83159455     0.44200
Cu153      Cu  0.17123181  0.41759832  0.87151313     0.42000
Cu154      Cu  0.14313003  0.40869993  0.84226520     0.43900
N155        N  0.16443051  0.41525816  0.81590919    -0.33200
N156        N  0.15052609  0.41070751  0.81979834    -0.27500
C157        C  0.14274750  0.40689851  0.80706518    -0.03600
C158        C  0.15222474  0.40911367  0.79451773     0.08600
C159        C  0.16587058  0.41448348  0.80059918     0.02400
H160        H  0.13113370  0.40259661  0.80702711     0.10100
H161        H  0.17634798  0.41691073  0.79446202     0.09200
N162        N  0.13888970  0.40709944  0.86556288    -0.34700
N163        N  0.14912917  0.41043532  0.87618731    -0.26800
C164        C  0.14280933  0.40842619  0.89007363    -0.02100
C165        C  0.12779292  0.40365374  0.88813843     0.06500
C166        C  0.12573561  0.40291382  0.87240929     0.04600
H167        H  0.14877291  0.41031364  0.90073652     0.09700
H168        H  0.11535985  0.40005355  0.86635543     0.08600
N169        N  0.20635935  0.13535467  0.59062707    -0.25800
N170        N  0.21069840  0.14974823  0.59235583    -0.33700
C171        C  0.22603273  0.15022237  0.59378611     0.02500
C172        C  0.23164674  0.13542851  0.59296087     0.08500
C173        C  0.21879686  0.12633202  0.59092465    -0.04600
H174        H  0.23252988  0.16055281  0.59582374     0.09200
H175        H  0.21843140  0.11402956  0.58982058     0.10400
Cu176      Cu  0.19571710  0.16822683  0.59329752     0.44200
Cu177      Cu  0.18378140  0.12820082  0.58858395     0.42000
Cu178      Cu  0.15595899  0.15830219  0.58914682     0.43900
N179        N  0.17812980  0.18427297  0.59341601    -0.33200
N180        N  0.16359207  0.18046604  0.59163061    -0.27500
C181        C  0.15492732  0.19310866  0.59210748    -0.03600
C182        C  0.16441505  0.20557687  0.59436741     0.08600
C183        C  0.17908316  0.19953971  0.59518510     0.02400
H184        H  0.14257123  0.19313139  0.59127244     0.10100
H185        H  0.18966428  0.20576231  0.59684525     0.09200
N186        N  0.15026670  0.13551748  0.58719798    -0.34700
N187        N  0.16038758  0.12433492  0.58707885    -0.26800
C188        C  0.15291398  0.11090875  0.58597021    -0.02100
C189        C  0.13732897  0.11385059  0.58529068     0.06500
C190        C  0.13612225  0.12958694  0.58612699     0.04600
H191        H  0.15844188  0.09987489  0.58558361     0.09700
H192        H  0.12572961  0.13626911  0.58631447     0.08600
N193        N  0.42899047  0.15185539  0.81767736    -0.25800
N194        N  0.42752695  0.16601695  0.81271648    -0.33700
C195        C  0.42671227  0.16589093  0.79734567     0.02500
C196        C  0.42779497  0.15087695  0.79241865     0.08500
C197        C  0.42928002  0.14229817  0.80563646    -0.04600
H198        H  0.42524112  0.17595735  0.79033130     0.09200
H199        H  0.42984469  0.12998565  0.80650194     0.10400
Cu200      Cu  0.42603613  0.18449865  0.82738682     0.44200
Cu201      Cu  0.42934799  0.14636532  0.84061233     0.42000
Cu202      Cu  0.42686603  0.17711604  0.86863926     0.43900
N203        N  0.42442091  0.20121848  0.84404327    -0.33200
N204        N  0.42452313  0.19870184  0.85897691    -0.27500
C205        C  0.42295580  0.21215111  0.86631465    -0.03600
C206        C  0.42193503  0.22365086  0.85544524     0.08600
C207        C  0.42288349  0.21625539  0.84148320     0.02400
H208        H  0.42275676  0.21344700  0.87862886     0.10100
H209        H  0.42220351  0.22135983  0.83023604     0.09200
N210        N  0.42917452  0.15415830  0.87430447    -0.34700
N211        N  0.42975378  0.14313240  0.86398176    -0.26800
C212        C  0.43116459  0.12963988  0.87109333    -0.02100
C213        C  0.43170782  0.13216661  0.88673480     0.06500
C214        C  0.43035005  0.14790550  0.88834277     0.04600
H215        H  0.43163974  0.11880209  0.86517877     0.09700
H216        H  0.43052789  0.15441490  0.89886146     0.08600
N217        N  0.40209106  0.36058977  0.87346086    -0.25800
N218        N  0.38798228  0.35742047  0.86898444    -0.33700
C219        C  0.38716430  0.34263667  0.86491392     0.02500
C220        C  0.40142492  0.33610958  0.86700656     0.08500
C221        C  0.41062577  0.34785648  0.87242008    -0.04600
H222        H  0.37673448  0.33689371  0.86148687     0.09200
H223        H  0.42255376  0.34717814  0.87563150     0.10400
Cu224      Cu  0.36990561  0.37256310  0.87050292     0.44200
Cu225      Cu  0.40876399  0.38178752  0.88175512     0.42000
Cu226      Cu  0.37749979  0.40769250  0.89050450     0.43900
N227        N  0.35302644  0.38804488  0.87634185    -0.33200
N228        N  0.35572751  0.40079829  0.88398340    -0.27500
C229        C  0.34242167  0.40819276  0.88617197    -0.03600
C230        C  0.33074046  0.39963661  0.87962282     0.08600
C231        C  0.33794611  0.38693494  0.87349576     0.02400
H232        H  0.34137720  0.41895116  0.89216086     0.10100
H233        H  0.33269924  0.37767034  0.86717446     0.09200
N234        N  0.40045172  0.41328631  0.89292401    -0.34700
N235        N  0.41184757  0.40399194  0.88948011    -0.26800
C236        C  0.42512979  0.41173885  0.89048298    -0.02100
C237        C  0.42196738  0.42668630  0.89469234     0.06500
C238        C  0.40617795  0.42716092  0.89625569     0.04600
H239        H  0.43614722  0.40706594  0.88736553     0.09700
H240        H  0.39922647  0.43698974  0.89900014     0.08600
N241        N  0.36531749  0.10161279  0.61730191    -0.25800
N242        N  0.36231995  0.10651122  0.63128598    -0.33700
C243        C  0.34746949  0.11027328  0.63227458     0.02500
C244        C  0.34066972  0.10776275  0.61816683     0.08500
C245        C  0.35236771  0.10218592  0.60895169    -0.04600
H246        H  0.34210773  0.11458667  0.64256202     0.09200
H247        H  0.35168935  0.09927422  0.59693891     0.10400
Cu248      Cu  0.37855311  0.10865072  0.64827405     0.44200
Cu249      Cu  0.38717565  0.09513977  0.61044557     0.42000
Cu250      Cu  0.41743848  0.09862403  0.63956429     0.43900
N251        N  0.39607864  0.10991192  0.66401297    -0.33200
N252        N  0.41043996  0.10631079  0.66098112    -0.27500
C253        C  0.41886977  0.10834892  0.67374048    -0.03600
C254        C  0.40925969  0.11337416  0.68534693     0.08600
C255        C  0.39492249  0.11426797  0.67870128     0.02400
H256        H  0.43100927  0.10611661  0.67454343     0.10100
H257        H  0.38440946  0.11800330  0.68405830     0.09200
N258        N  0.42105213  0.09148799  0.61712276    -0.34700
N259        N  0.41016358  0.09017755  0.60666896    -0.26800
C260        C  0.41654036  0.08591601  0.59330823    -0.02100
C261        C  0.43221358  0.08450061  0.59537396     0.06500
C262        C  0.43461437  0.08810620  0.61065793     0.04600
H263        H  0.41026836  0.08460507  0.58271367     0.09700
H264        H  0.44543117  0.08844303  0.61666103     0.08600
N265        N  0.13452998  0.34077471  0.61249332    -0.25800
N266        N  0.13724586  0.33700020  0.62688199    -0.33700
C267        C  0.13895547  0.32180167  0.62786134     0.02500
C268        C  0.13710735  0.31550971  0.61340815     0.08500
C269        C  0.13437212  0.32796416  0.60391733    -0.04600
H270        H  0.14164613  0.31586209  0.63837672     0.09200
H271        H  0.13228080  0.32779488  0.59172271     0.10400
Cu272      Cu  0.13804919  0.35233901  0.64486501     0.44200
Cu273      Cu  0.13144716  0.36330183  0.60544872     0.42000
Cu274      Cu  0.13279518  0.39195222  0.63597133     0.43900
N275        N  0.13677479  0.36917494  0.66141176    -0.33200
N276        N  0.13473455  0.38377625  0.65822803    -0.27500
C277        C  0.13450376  0.39174970  0.67141022    -0.03600
C278        C  0.13654495  0.38165909  0.68350145     0.08600
C279        C  0.13789528  0.36743039  0.67665789     0.02400
H280        H  0.13339779  0.40403034  0.67206535     0.10100
H281        H  0.13952098  0.35655018  0.68228412     0.09200
N282        N  0.13065769  0.39709833  0.61282372    -0.34700
N283        N  0.12977345  0.38677614  0.60180803    -0.26800
C284        C  0.12794518  0.39398484  0.58831852    -0.02100
C285        C  0.12777146  0.40969020  0.59085173     0.06500
C286        C  0.12960103  0.41111345  0.60661263     0.04600
H287        H  0.12658524  0.38807887  0.57754536     0.09700
H288        H  0.13033672  0.42151772  0.61321923     0.08600
N289        N  0.42673435  0.85793578  0.86056396    -0.25800
N290        N  0.42492309  0.85444064  0.84595812    -0.33700
C291        C  0.42087468  0.83967617  0.84472478     0.02500
C292        C  0.42008800  0.83339624  0.85926883     0.08500
C293        C  0.42390767  0.84537355  0.86904483    -0.04600
H294        H  0.41816978  0.83413153  0.83399825     0.09200
H295        H  0.42455865  0.84504955  0.88140005     0.10400
Cu296      Cu  0.42705293  0.86993576  0.82823598     0.44200
Cu297      Cu  0.43223290  0.87996649  0.86793268     0.42000
Cu298      Cu  0.43554705  0.90883206  0.83731563     0.43900
N299        N  0.42782607  0.88706533  0.81198411    -0.33200
N300        N  0.43092117  0.90149793  0.81517932    -0.27500
C301        C  0.42976304  0.90980730  0.80224336    -0.03600
C302        C  0.42563740  0.90007881  0.79038168     0.08600
C303        C  0.42456881  0.88576002  0.79701715     0.02400
H304        H  0.43123464  0.92206934  0.80164892     0.10100
H305        H  0.42144640  0.87516587  0.79144390     0.09200
N306        N  0.43878430  0.91322424  0.86046016    -0.34700
N307        N  0.43734207  0.90300821  0.87152719    -0.26800
C308        C  0.43934077  0.91005963  0.88509152    -0.02100
C309        C  0.44224450  0.92547199  0.88249175     0.06500
C310        C  0.44185825  0.92694546  0.86667637     0.04600
H311        H  0.43817456  0.90441157  0.89603022     0.09700
H312        H  0.44357107  0.93721537  0.86003178     0.08600
N313        N  0.15393749  0.85149216  0.57864467    -0.25800
N314        N  0.16872127  0.84865873  0.58007438    -0.33700
C315        C  0.17068116  0.83379908  0.58340411     0.02500
C316        C  0.15643549  0.82682227  0.58413001     0.08500
C317        C  0.14608933  0.83844371  0.58102085    -0.04600
H318        H  0.18168334  0.82863304  0.58564041     0.09200
H319        H  0.13375366  0.83755270  0.58055114     0.10400
Cu320      Cu  0.18564111  0.86515578  0.57838420     0.44200
Cu321      Cu  0.14513755  0.87323606  0.57456561     0.42000
Cu322      Cu  0.17332638  0.90404258  0.57312215     0.43900
N323        N  0.20058417  0.88352448  0.57784659    -0.33200
N324        N  0.19620136  0.89781998  0.57585785    -0.27500
C325        C  0.20854573  0.90700800  0.57705344    -0.03600
C326        C  0.22133922  0.89805194  0.58000618     0.08600
C327        C  0.21575313  0.88321107  0.58039387     0.02400
H328        H  0.20812466  0.91931235  0.57610235     0.10100
H329        H  0.22206756  0.87295163  0.58307881     0.09200
N330        N  0.14969400  0.90745751  0.57264802    -0.34700
N331        N  0.13945050  0.89631634  0.57297637    -0.26800
C332        C  0.12533183  0.90247312  0.57345484    -0.02100
C333        C  0.12665518  0.91832756  0.57358269     0.06500
C334        C  0.14235608  0.92095774  0.57301685     0.04600
H335        H  0.11493243  0.89579311  0.57394759     0.09700
H336        H  0.14815627  0.93186012  0.57360961     0.08600
N337        N  0.14406303  0.62287656  0.81941546    -0.25800
N338        N  0.15851708  0.62398553  0.81518136    -0.33700
C339        C  0.15923770  0.62700943  0.80016340     0.02500
C340        C  0.14447111  0.62772425  0.79449042     0.08500
C341        C  0.13509444  0.62510378  0.80708138    -0.04600
H342        H  0.16980387  0.62871316  0.79394294     0.09200
H343        H  0.12272808  0.62456225  0.80726452     0.10400
Cu344      Cu  0.17665473  0.62082681  0.82974031     0.44200
Cu345      Cu  0.13801296  0.61809429  0.84184919     0.42000
Cu346      Cu  0.17007379  0.61056454  0.86880811     0.43900
N347        N  0.19397735  0.61729884  0.84518299    -0.33200
N348        N  0.19184733  0.61354101  0.85966926    -0.27500
C349        C  0.20553291  0.61340637  0.86679174    -0.03600
C350        C  0.21670600  0.61739166  0.85620131     0.08600
C351        C  0.20892119  0.61965011  0.84263095     0.02400
H352        H  0.20710538  0.61150100  0.87892210     0.10100
H353        H  0.21364916  0.62330667  0.83178753     0.09200
N354        N  0.14694416  0.60956222  0.87437378    -0.34700
N355        N  0.13558561  0.61239873  0.86476306    -0.26800
C356        C  0.12221662  0.61095375  0.87223273    -0.02100
C357        C  0.12521805  0.60697436  0.88726954     0.06500
C358        C  0.14103842  0.60622450  0.88820555     0.04600
H359        H  0.11114850  0.61299884  0.86710469     0.09700
H360        H  0.14781747  0.60338088  0.89815154     0.08600
N361        N  0.34997053  0.65228167  0.88067130    -0.25800
N362        N  0.34483737  0.66638017  0.87916566    -0.33700
C363        C  0.32963547  0.66584278  0.87675817     0.02500
C364        C  0.32499871  0.65064685  0.87678361     0.08500
C365        C  0.33825496  0.64240190  0.87930617    -0.04600
H366        H  0.32256919  0.67578929  0.87487295     0.09200
H367        H  0.33936107  0.63014592  0.88026606     0.10400
Cu368      Cu  0.35894074  0.68555034  0.88047440     0.44200
Cu369      Cu  0.37263499  0.64701332  0.88418360     0.42000
Cu370      Cu  0.39928249  0.67804764  0.88908856     0.43900
N371        N  0.37565790  0.70245941  0.88237817    -0.33200
N372        N  0.39016569  0.69972395  0.88572267    -0.27500
C373        C  0.39797660  0.71299015  0.88555447    -0.03600
C374        C  0.38797148  0.72470214  0.88188789     0.08600
C375        C  0.37390031  0.71755184  0.87996997     0.02400
H376        H  0.41019420  0.71391203  0.88734172     0.10100
H377        H  0.36316189  0.72286931  0.87693514     0.09200
N378        N  0.40570675  0.65518335  0.88917424    -0.34700
N379        N  0.39581727  0.64395484  0.88691514    -0.26800
C380        C  0.40333515  0.63062000  0.88630361    -0.02100
C381        C  0.41873260  0.63352576  0.88838430     0.06500
C382        C  0.41987113  0.64921688  0.89026276     0.04600
H383        H  0.39797112  0.61963745  0.88441872     0.09700
H384        H  0.43023484  0.65583260  0.89174370     0.08600
N385        N  0.12173274  0.65169143  0.65957061    -0.25800
N386        N  0.12436235  0.66629802  0.66233517    -0.33700
C387        C  0.12541238  0.66847927  0.67752162     0.02500
C388        C  0.12336579  0.65453255  0.68471589     0.08500
C389        C  0.12100704  0.64414444  0.67295922    -0.04600
H390        H  0.12778875  0.67938714  0.68285944     0.09200
H391        H  0.11958835  0.63191179  0.67399234     0.10400
Cu392      Cu  0.12758913  0.68231786  0.64533904     0.44200
Cu393      Cu  0.12038879  0.64277721  0.63764684     0.42000
Cu394      Cu  0.12699825  0.66950778  0.60602393     0.43900
N395        N  0.13146876  0.69650856  0.62690178    -0.33200
N396        N  0.13134974  0.69200725  0.61246076    -0.27500
C397        C  0.13419473  0.70417718  0.60344703    -0.03600
C398        C  0.13620188  0.71694067  0.61271853     0.08600
C399        C  0.13436088  0.71155898  0.62750685     0.02400
H400        H  0.13484083  0.70369938  0.59109215     0.10100
H401        H  0.13470505  0.71811852  0.63800147     0.09200
N402        N  0.12228546  0.64633782  0.60327004    -0.34700
N403        N  0.11983963  0.63674103  0.61471821    -0.26800
C404        C  0.11732627  0.62267611  0.60902763    -0.02100
C405        C  0.11827038  0.62339033  0.59322246     0.06500
C406        C  0.12142479  0.63858533  0.58998974     0.04600
H407        H  0.11537097  0.61261412  0.61594609     0.09700
H408        H  0.12296070  0.64367927  0.57880966     0.08600
N409        N  0.38377362  0.92793933  0.66008201    -0.25800
N410        N  0.39790541  0.93228915  0.65674786    -0.33700
C411        C  0.40668680  0.93078933  0.66933405     0.02500
C412        C  0.39763615  0.92532055  0.68118598     0.08500
C413        C  0.38318439  0.92365970  0.67486202    -0.04600
H414        H  0.41871280  0.93371970  0.66986603     0.09200
H415        H  0.37298660  0.91947665  0.68052108     0.10400
Cu416      Cu  0.40461136  0.94025647  0.63528183     0.44200
Cu417      Cu  0.36568740  0.92796870  0.64461537     0.42000
Cu418      Cu  0.37380174  0.94370005  0.60758651     0.43900
N419        N  0.40782681  0.94731425  0.61272119    -0.33200
N420        N  0.39650821  0.94864730  0.60276806    -0.27500
C421        C  0.40229576  0.95245463  0.58902556    -0.03600
C422        C  0.41807350  0.95355377  0.59027294     0.08600
C423        C  0.42115139  0.95027699  0.60552118     0.02400
H424        H  0.39547168  0.95397102  0.57881519     0.10100
H425        H  0.43229581  0.94936286  0.61083403     0.09200
N426        N  0.35235907  0.93565661  0.61382259    -0.34700
N427        N  0.34939407  0.92959592  0.62735394    -0.26800
C428        C  0.33478041  0.92467437  0.62754749    -0.02100
C429        C  0.32819656  0.92778493  0.61341865     0.06500
C430        C  0.33973432  0.93479188  0.60504545     0.04600
H431        H  0.32940113  0.91921478  0.63726808     0.09700
H432        H  0.33921569  0.93847530  0.59324486     0.08600
N433        N  0.89093071  0.85670748  0.58353157    -0.25800
N434        N  0.87635928  0.85283069  0.58499954    -0.33700
C435        C  0.87546819  0.83759087  0.58701805     0.02500
C436        C  0.89018022  0.83170805  0.58661309     0.08500
C437        C  0.89965916  0.84413782  0.58437744    -0.04600
H438        H  0.86492480  0.83126764  0.58853999     0.09200
H439        H  0.91202925  0.84411722  0.58376330     0.10400
Cu440      Cu  0.85855261  0.86864028  0.58427992     0.44200
Cu441      Cu  0.89876051  0.87881419  0.58149058     0.42000
Cu442      Cu  0.87081445  0.90851870  0.58171040     0.43900
N443        N  0.84362392  0.88720485  0.58409399    -0.33200
N444        N  0.84816277  0.90159996  0.58305649    -0.27500
C445        C  0.83588204  0.91079165  0.58386320    -0.03600
C446        C  0.82291573  0.90181879  0.58553946     0.08600
C447        C  0.82828421  0.88690257  0.58562507     0.02400
H448        H  0.83645782  0.92314212  0.58382311     0.10100
H449        H  0.82157318  0.87657047  0.58683751     0.09200
N450        N  0.89415179  0.91268179  0.58198645    -0.34700
N451        N  0.90442911  0.90165176  0.58181277    -0.26800
C452        C  0.91850091  0.90779740  0.58272072    -0.02100
C453        C  0.91703242  0.92351699  0.58355032     0.06500
C454        C  0.90140837  0.92620697  0.58302957     0.04600
H455        H  0.92896442  0.90123901  0.58324812     0.09700
H456        H  0.89569805  0.93715168  0.58341735     0.08600
N457        N  0.62393348  0.85476276  0.85479466    -0.25800
N458        N  0.62537026  0.85151937  0.84006980    -0.33700
C459        C  0.62874158  0.83662806  0.83851456     0.02500
C460        C  0.62959546  0.83019082  0.85294817     0.08500
C461        C  0.62648007  0.84201835  0.86300550    -0.04600
H462        H  0.63104400  0.83107469  0.82769965     0.09200
H463        H  0.62626644  0.84147714  0.87537419     0.10400
Cu464      Cu  0.62430208  0.86749696  0.82263186     0.44200
Cu465      Cu  0.61971547  0.87651457  0.86321271     0.42000
Cu466      Cu  0.62064282  0.90640229  0.83440137     0.43900
N467        N  0.62484528  0.88563720  0.80743644    -0.33200
N468        N  0.62363025  0.90002366  0.81181645    -0.27500
C469        C  0.62496468  0.90914533  0.79950288    -0.03600
C470        C  0.62710663  0.90004078  0.78669351     0.08600
C471        C  0.62696046  0.88518191  0.79219309     0.02400
H472        H  0.62434964  0.92148034  0.79989099     0.10100
H473        H  0.62868276  0.87481158  0.78569668     0.09200
N474        N  0.61841334  0.91039458  0.85761382    -0.34700
N475        N  0.61786972  0.89961069  0.86819229    -0.26800
C476        C  0.61680613  0.90624116  0.88206738    -0.02100
C477        C  0.61679805  0.92196090  0.88007921     0.06500
C478        C  0.61777042  0.92412711  0.86442051     0.04600
H479        H  0.61654637  0.90007198  0.89278774     0.09700
H480        H  0.61797908  0.93489013  0.85834935     0.08600
N481        N  0.86193865  0.62927543  0.85114393    -0.25800
N482        N  0.85993335  0.63305618  0.83663967    -0.33700
C483        C  0.84502627  0.63585906  0.83413979     0.02500
C484        C  0.83717084  0.63365646  0.84771854     0.08500
C485        C  0.84825387  0.62942134  0.85826516    -0.04600
H486        H  0.84029425  0.63929609  0.82323857     0.09200
H487        H  0.84658077  0.62714651  0.87032148     0.10400
Cu488      Cu  0.87754941  0.63468831  0.82097963     0.44200
Cu489      Cu  0.88351364  0.62526770  0.86042613     0.42000
Cu490      Cu  0.91623952  0.63178066  0.83439875     0.43900
N491        N  0.89637874  0.63653524  0.80683761    -0.33200
N492        N  0.91070995  0.63603208  0.81164715    -0.27500
C493        C  0.92010020  0.63802854  0.79954755    -0.03600
C494        C  0.91114311  0.63963698  0.78654025     0.08600
C495        C  0.89620212  0.63863930  0.79162411     0.02400
H496        H  0.93246865  0.63799306  0.80013026     0.10100
H497        H  0.88591858  0.63958931  0.78479960     0.09200
N498        N  0.91812209  0.62581806  0.85737370    -0.34700
N499        N  0.90643242  0.62328404  0.86669168    -0.26800
C500        C  0.91186713  0.61973868  0.88067189    -0.02100
C501        C  0.92773067  0.62009393  0.88017092     0.06500
C502        C  0.93124551  0.62396200  0.86518851     0.04600
H503        H  0.90475618  0.61751315  0.89056160     0.09700
H504        H  0.94252194  0.62528798  0.86024689     0.08600
N505        N  0.93333309  0.65746260  0.65034192    -0.25800
N506        N  0.93380120  0.67232168  0.65285302    -0.33700
C507        C  0.93358436  0.67495341  0.66800566     0.02500
C508        C  0.93281824  0.66102401  0.67551400     0.08500
C509        C  0.93271151  0.65018307  0.66388158    -0.04600
H510        H  0.93367741  0.68622860  0.67307085     0.09200
H511        H  0.93155823  0.63794312  0.66508148     0.10400
Cu512      Cu  0.93274378  0.68819641  0.63554166     0.44200
Cu513      Cu  0.93249595  0.64818709  0.62847323     0.42000
Cu514      Cu  0.92981119  0.67540533  0.59639551     0.43900
N515        N  0.92871166  0.70250550  0.61732167    -0.33200
N516        N  0.92781493  0.69815344  0.60287353    -0.27500
C517        C  0.92458853  0.71045212  0.59417540    -0.03600
C518        C  0.92335689  0.72313269  0.60370851     0.08600
C519        C  0.92594385  0.71750890  0.61828814     0.02400
H520        H  0.92317947  0.71009508  0.58188411     0.10100
H521        H  0.92533790  0.72367591  0.62900050     0.09200
N522        N  0.93001918  0.65177504  0.59405166    -0.34700
N523        N  0.93102730  0.64199021  0.60555646    -0.26800
C524        C  0.93040375  0.62766814  0.59997260    -0.02100
C525        C  0.92881993  0.62845362  0.58421312     0.06500
C526        C  0.92864494  0.64392171  0.58088457     0.04600
H527        H  0.93067350  0.61746456  0.60694201     0.09700
H528        H  0.92762022  0.64913273  0.56970938     0.08600
N529        N  0.70038356  0.65174834  0.87159923    -0.25800
N530        N  0.70435367  0.66618377  0.87378801    -0.33700
C531        C  0.71956194  0.66764318  0.87200832     0.02500
C532        C  0.72553487  0.65349064  0.86839564     0.08500
C533        C  0.71304856  0.64366115  0.86816463    -0.04600
H534        H  0.72575485  0.67832579  0.87290309     0.09200
H535        H  0.71318364  0.63151930  0.86587385     0.10400
Cu536      Cu  0.68912596  0.68375909  0.87780444     0.44200
Cu537      Cu  0.67788869  0.64384613  0.87372256     0.42000
Cu538      Cu  0.64947061  0.67396178  0.87828310     0.43900
N539        N  0.67192037  0.69989692  0.87776916    -0.33200
N540        N  0.65723623  0.69629839  0.87767660    -0.27500
C541        C  0.64894488  0.70914594  0.87630530    -0.03600
C542        C  0.65893010  0.72145613  0.87542763     0.08600
C543        C  0.67341598  0.71512269  0.87644773     0.02400
H544        H  0.63661142  0.70939755  0.87532998     0.10100
H545        H  0.68427772  0.72105159  0.87595347     0.09200
N546        N  0.64438974  0.65086410  0.87879937    -0.34700
N547        N  0.65455529  0.63980647  0.87719631    -0.26800
C548        C  0.64723331  0.62625061  0.87807676    -0.02100
C549        C  0.63171183  0.62894373  0.88024804     0.06500
C550        C  0.63042057  0.64469970  0.88068891     0.04600
H551        H  0.65276666  0.61528187  0.87686827     0.09700
H552        H  0.62010072  0.65128620  0.88237505     0.08600
N553        N  0.66229357  0.93814128  0.65728717    -0.25800
N554        N  0.64787371  0.94177717  0.65453477    -0.33700
C555        C  0.63955172  0.93921768  0.66727617     0.02500
C556        C  0.64919477  0.93352424  0.67850145     0.08500
C557        C  0.66351915  0.93302364  0.67174776    -0.04600
H558        H  0.62731102  0.94082917  0.66811481     0.09200
H559        H  0.67406000  0.92911578  0.67691300     0.10400
Cu560      Cu  0.64017143  0.94878008  0.63310557     0.44200
Cu561      Cu  0.67958213  0.93953815  0.64109908     0.42000
Cu562      Cu  0.66942652  0.95135630  0.60301633     0.43900
N563        N  0.63557831  0.95412766  0.61032754    -0.33200
N564        N  0.64619849  0.95531681  0.59958971    -0.27500
C565        C  0.63937446  0.95808023  0.58607516    -0.03600
C566        C  0.62364565  0.95850933  0.58827477     0.08600
C567        C  0.62171305  0.95601635  0.60386114     0.02400
H568        H  0.64549194  0.95934473  0.57539340     0.10100
H569        H  0.61100691  0.95490529  0.60997587     0.09200
N570        N  0.69139423  0.94444419  0.60901151    -0.34700
N571        N  0.69500998  0.94027534  0.62309117    -0.26800
C572        C  0.70975596  0.93598350  0.62342711    -0.02100
C573        C  0.71581599  0.93744631  0.60883939     0.06500
C574        C  0.70379252  0.94280763  0.59995749     0.04600
H575        H  0.71548595  0.93163073  0.63349226     0.09700
H576        H  0.70400252  0.94531080  0.58783391     0.08600
N577        N  0.14782521  0.62225639  0.16061846    -0.25800
N578        N  0.16232330  0.62430732  0.16443506    -0.33700
C579        C  0.16343578  0.62480597  0.17976952     0.02500
C580        C  0.14894658  0.62297214  0.18601289     0.08500
C581        C  0.13929683  0.62146694  0.17347141    -0.04600
H582        H  0.17403002  0.62666393  0.18589917     0.09200
H583        H  0.12704364  0.61969617  0.17363840     0.10400
Cu584      Cu  0.18007994  0.62646630  0.14872147     0.44200
Cu585      Cu  0.14074323  0.62023175  0.13801490     0.42000
Cu586      Cu  0.17101669  0.62084853  0.10889873     0.43900
N587        N  0.19612510  0.62828908  0.13122677    -0.33200
N588        N  0.19286731  0.62593637  0.11663597    -0.27500
C589        C  0.20562794  0.62797370  0.10822719    -0.03600
C590        C  0.21750292  0.63191341  0.11799281     0.08600
C591        C  0.21102859  0.63199887  0.13249065     0.02400
H592        H  0.20610900  0.62702572  0.09589102     0.10100
H593        H  0.21673610  0.63445293  0.14319904     0.09200
N594        N  0.14801457  0.61736482  0.10420746    -0.34700
N595        N  0.13709746  0.61727659  0.11470744    -0.26800
C596        C  0.12354976  0.61489042  0.10781018    -0.02100
C597        C  0.12601491  0.61339056  0.09221217     0.06500
C598        C  0.14168143  0.61506352  0.09035590     0.04600
H599        H  0.11268515  0.61455099  0.11373792     0.09700
H600        H  0.14807372  0.61451966  0.07976729     0.08600
N601        N  0.15033747  0.85147796  0.39346773    -0.25800
N602        N  0.16502509  0.84963647  0.39028938    -0.33700
C603        C  0.16775574  0.83473751  0.38765767     0.02500
C604        C  0.15417423  0.82662118  0.38924036     0.08500
C605        C  0.14336393  0.83770672  0.39291491    -0.04600
H606        H  0.17882392  0.83023864  0.38446998     0.09200
H607        H  0.13132428  0.83592116  0.39520145     0.10400
Cu608      Cu  0.18097581  0.86733238  0.38952382     0.44200
Cu609      Cu  0.14059689  0.87280153  0.39851912     0.42000
Cu610      Cu  0.16818361  0.90391267  0.40270112     0.43900
N611        N  0.19491602  0.88664974  0.38983977    -0.33200
N612        N  0.19023715  0.90006213  0.39492856    -0.27500
C613        C  0.20163303  0.91031745  0.39335309    -0.03600
C614        C  0.21418135  0.90303270  0.38694838     0.08600
C615        C  0.20945199  0.88800226  0.38489735     0.02400
H616        H  0.20079379  0.92219137  0.39666584     0.10100
H617        H  0.21593272  0.87877915  0.37984106     0.09200
N618        N  0.14485342  0.90636530  0.40608764    -0.34700
N619        N  0.13463427  0.89537598  0.40400103    -0.26800
C620        C  0.12050939  0.90143060  0.40544095    -0.02100
C621        C  0.12194718  0.91694106  0.40866445     0.06500
C622        C  0.13757608  0.91956060  0.40901410     0.04600
H623        H  0.10998999  0.89505575  0.40398698     0.09700
H624        H  0.14327990  0.93046023  0.41039220     0.08600
N625        N  0.43238992  0.85852545  0.12031054    -0.25800
N626        N  0.42864204  0.85591346  0.13474382    -0.33700
C627        C  0.42597920  0.84088487  0.13663925     0.02500
C628        C  0.42808437  0.83354405  0.12272225     0.08500
C629        C  0.43221053  0.84515542  0.11264762    -0.04600
H630        H  0.42205792  0.83583334  0.14723472     0.09200
H631        H  0.43463841  0.84406710  0.10055898     0.10400
Cu632      Cu  0.42605517  0.87292381  0.15107706     0.44200
Cu633      Cu  0.43620208  0.88041582  0.11146969     0.42000
Cu634      Cu  0.43278234  0.91164877  0.13895420     0.43900
N635        N  0.42375765  0.89163537  0.16546377    -0.33200
N636        N  0.42647172  0.90584235  0.16114681    -0.27500
C637        C  0.42404643  0.91523139  0.17311530    -0.03600
C638        C  0.41951433  0.90652406  0.18564093     0.08600
C639        C  0.41943940  0.89159118  0.18023888     0.02400
H640        H  0.42565978  0.92747044  0.17268036     0.10100
H641        H  0.41621136  0.88139360  0.18642108     0.09200
N642        N  0.43693442  0.91474420  0.11572608    -0.34700
N643        N  0.43792468  0.90353363  0.10562625    -0.26800
C644        C  0.43950571  0.90964426  0.09153996    -0.02100
C645        C  0.43953427  0.92550924  0.09277943     0.06500
C646        C  0.43798169  0.92820298  0.10838407     0.04600
H647        H  0.44001311  0.90295613  0.08114449     0.09700
H648        H  0.43754190  0.93913034  0.11412750     0.08600
N649        N  0.35316498  0.65577613  0.09145459    -0.25800
N650        N  0.34961014  0.67025133  0.09389514    -0.33700
C651        C  0.33439038  0.67132612  0.09597604     0.02500
C652        C  0.32800037  0.65683374  0.09486033     0.08500
C653        C  0.34031078  0.64726744  0.09198673    -0.04600
H654        H  0.32850332  0.68185974  0.09861627     0.09200
H655        H  0.34000556  0.63502600  0.09035623     0.10400
Cu656      Cu  0.36560348  0.68792297  0.09513827     0.44200
Cu657      Cu  0.37535043  0.64815511  0.08781402     0.42000
Cu658      Cu  0.40506371  0.67715354  0.09020879     0.43900
N659        N  0.38375899  0.70334256  0.09674378    -0.33200
N660        N  0.39820299  0.69937152  0.09464759    -0.27500
C661        C  0.40720200  0.71175295  0.09640370    -0.03600
C662        C  0.39801383  0.72411936  0.09994671     0.08600
C663        C  0.38320897  0.71836006  0.10009385     0.02400
H664        H  0.41955655  0.71166375  0.09556893     0.10100
H665        H  0.37280642  0.72462474  0.10243115     0.09200
N666        N  0.40926875  0.65427901  0.08579065    -0.34700
N667        N  0.39846160  0.64373091  0.08465156    -0.26800
C668        C  0.40504390  0.63013278  0.08182959    -0.02100
C669        C  0.42075391  0.63221678  0.08128407     0.06500
C670        C  0.42300587  0.64766616  0.08386348     0.04600
H671        H  0.39888168  0.61944159  0.08085313     0.09700
H672        H  0.43383254  0.65366981  0.08443789     0.08600
N673        N  0.34157719  0.94320637  0.34620639    -0.25800
N674        N  0.34481756  0.94391034  0.36096285    -0.33700
C675        C  0.33170706  0.94240571  0.36897096     0.02500
C676        C  0.31960781  0.94068554  0.35873982     0.08500
C677        C  0.32641330  0.94134332  0.34440325    -0.04600
H678        H  0.33115492  0.94196044  0.38132948     0.09200
H679        H  0.32087656  0.94035770  0.33338654     0.10400
Cu680      Cu  0.36716417  0.94618646  0.36920478     0.44200
Cu681      Cu  0.35788074  0.94347148  0.32906318     0.42000
Cu682      Cu  0.39731978  0.94767082  0.33984359     0.43900
N683        N  0.39054180  0.94809746  0.37396745    -0.33200
N684        N  0.40134139  0.94858033  0.36333902    -0.27500
C685        C  0.41511560  0.94920940  0.37021075    -0.03600
C686        C  0.41298827  0.94914637  0.38594422     0.08600
C687        C  0.39722405  0.94850358  0.38787997     0.02400
H688        H  0.42589823  0.94969356  0.36414471     0.10100
H689        H  0.39105657  0.94793499  0.39860034     0.09200
N690        N  0.39024352  0.94445290  0.31730412    -0.34700
N691        N  0.37570743  0.94258730  0.31353962    -0.26800
C692        C  0.37471709  0.93938085  0.29852537    -0.02100
C693        C  0.38934127  0.93929525  0.29244517     0.06500
C694        C  0.39892139  0.94263670  0.30467268     0.04600
H695        H  0.36412620  0.93703236  0.29255251     0.09700
H696        H  0.41129444  0.94297906  0.30455206     0.08600
N697        N  0.13100666  0.64335452  0.32348969    -0.25800
N698        N  0.13457734  0.65747931  0.31946696    -0.33700
C699        C  0.13700742  0.65789240  0.30426325     0.02500
C700        C  0.13480967  0.64333940  0.29835545     0.08500
C701        C  0.13097809  0.63441395  0.31091566    -0.04600
H702        H  0.13989800  0.66812349  0.29794472     0.09200
H703        H  0.12855691  0.62229128  0.31097218     0.10400
Cu704      Cu  0.13572284  0.67567933  0.33478827     0.44200
Cu705      Cu  0.12656984  0.63710635  0.34600920     0.42000
Cu706      Cu  0.12673182  0.66768842  0.37453922     0.43900
N707        N  0.13600458  0.69221649  0.35194266    -0.33200
N708        N  0.13258659  0.68937850  0.36641401    -0.27500
C709        C  0.13400322  0.70240991  0.37452268    -0.03600
C710        C  0.13858871  0.71408594  0.36472882     0.08600
C711        C  0.13970159  0.70709439  0.35048138     0.02400
H712        H  0.13170716  0.70329141  0.38665605     0.10100
H713        H  0.14324573  0.71230597  0.33983465     0.09200
N714        N  0.12301767  0.64466776  0.37969395    -0.34700
N715        N  0.12320500  0.63365443  0.36930954    -0.26800
C716        C  0.12140020  0.62010479  0.37634949    -0.02100
C717        C  0.11996524  0.62261173  0.39194817     0.06500
C718        C  0.12098172  0.63835530  0.39363213     0.04600
H719        H  0.12123480  0.60921573  0.37050071     0.09700
H720        H  0.12083276  0.64471846  0.40424854     0.08600
N721        N  0.61908990  0.86313534  0.10812360    -0.25800
N722        N  0.61842033  0.85892272  0.12261872    -0.33700
C723        C  0.61978428  0.84364912  0.12343897     0.02500
C724        C  0.62144242  0.83798985  0.10870591     0.08500
C725        C  0.62098466  0.85070221  0.09928718    -0.04600
H726        H  0.61990217  0.83721155  0.13399916     0.09200
H727        H  0.62178675  0.85092341  0.08693466     0.10400
Cu728      Cu  0.61628093  0.87440927  0.14041719     0.44200
Cu729      Cu  0.61720464  0.88559968  0.10133904     0.42000
Cu730      Cu  0.61454663  0.91496055  0.13105091     0.43900
N731        N  0.61581721  0.89172037  0.15658769    -0.33200
N732        N  0.61540124  0.90647413  0.15336293    -0.27500
C733        C  0.61606485  0.91443157  0.16656783    -0.03600
C734        C  0.61692336  0.90417384  0.17868456     0.08600
C735        C  0.61672866  0.88990019  0.17183277     0.02400
H736        H  0.61601529  0.92677164  0.16724415     0.10100
H737        H  0.61781095  0.87894312  0.17743494     0.09200
N738        N  0.61363923  0.91936935  0.10759085    -0.34700
N739        N  0.61458076  0.90859296  0.09701483    -0.26800
C740        C  0.61362837  0.91497841  0.08308648    -0.02100
C741        C  0.61207036  0.93059484  0.08484568     0.06500
C742        C  0.61207505  0.93298001  0.10057011     0.04600
H743        H  0.61390165  0.90861381  0.07247963     0.09700
H744        H  0.61129483  0.94380443  0.10649086     0.08600
N745        N  0.89129267  0.85571477  0.38912931    -0.25800
N746        N  0.87737743  0.85275160  0.38399634    -0.33700
C747        C  0.87638302  0.83795725  0.38008327     0.02500
C748        C  0.89038573  0.83110754  0.38279038     0.08500
C749        C  0.89958458  0.84274982  0.38858713    -0.04600
H750        H  0.86607609  0.83258982  0.37581950     0.09200
H751        H  0.91147949  0.84196640  0.39189461     0.10400
Cu752      Cu  0.86018274  0.86871393  0.38237842     0.44200
Cu753      Cu  0.89803333  0.87756872  0.39600253     0.42000
Cu754      Cu  0.86890072  0.90764759  0.39167889     0.43900
N755        N  0.84412046  0.88587612  0.38185949    -0.33200
N756        N  0.84712140  0.90028023  0.38526200    -0.27500
C757        C  0.83410589  0.90841621  0.38401493    -0.03600
C758        C  0.82236779  0.89857862  0.37968822     0.08600
C759        C  0.82922447  0.88440163  0.37839291     0.02400
H760        H  0.83321770  0.92051312  0.38640145     0.10100
H761        H  0.82386356  0.87376229  0.37505219     0.09200
N762        N  0.89169562  0.91165707  0.39757682    -0.34700
N763        N  0.90208541  0.90083942  0.39949267    -0.26800
C764        C  0.91568913  0.90745952  0.40254574    -0.02100
C765        C  0.91387457  0.92320411  0.40240245     0.06500
C766        C  0.89846913  0.92539688  0.39925639     0.04600
H767        H  0.92628898  0.90126201  0.40392688     0.09700
H768        H  0.89261693  0.93619396  0.39798773     0.08600
N769        N  0.85045884  0.64046495  0.11059998    -0.25800
N770        N  0.84621505  0.64079648  0.12512786    -0.33700
C771        C  0.83098256  0.64272122  0.12589096     0.02500
C772        C  0.82530724  0.64356901  0.11112475     0.08500
C773        C  0.83799380  0.64209507  0.10171381    -0.04600
H774        H  0.82450648  0.64308997  0.13644241     0.09200
H775        H  0.83819527  0.64224838  0.08933308     0.10400
Cu776      Cu  0.86101711  0.63804636  0.14338104     0.44200
Cu777      Cu  0.87288541  0.63721099  0.10354704     0.42000
Cu778      Cu  0.90020370  0.63044799  0.13437390     0.43900
N779        N  0.87776703  0.63516459  0.15983818    -0.33200
N780        N  0.89225441  0.63239844  0.15657875    -0.27500
C781        C  0.90037034  0.63202139  0.16966499    -0.03600
C782        C  0.89048458  0.63476212  0.18177832     0.08600
C783        C  0.87622276  0.63659058  0.17506632     0.02400
H784        H  0.91264233  0.63055339  0.17020824     0.10100
H785        H  0.86550466  0.63900823  0.18074722     0.09200
N786        N  0.90562134  0.62966083  0.11134512    -0.34700
N787        N  0.89580458  0.63212338  0.10009548    -0.26800
C788        C  0.90310032  0.63042991  0.08662958    -0.02100
C789        C  0.91824069  0.62678090  0.08958676     0.06500
C790        C  0.91939797  0.62641283  0.10537290     0.04600
H791        H  0.89777769  0.63185097  0.07554071     0.09700
H792        H  0.92943285  0.62368380  0.11207754     0.08600
N793        N  0.68981511  0.65926016  0.08245397    -0.25800
N794        N  0.69334419  0.67393890  0.08225340    -0.33700
C795        C  0.70865560  0.67544899  0.08286584     0.02500
C796        C  0.71509411  0.66099082  0.08349632     0.08500
C797        C  0.70274979  0.65101700  0.08311719    -0.04600
H798        H  0.71457161  0.68628968  0.08366918     0.09200
H799        H  0.70304232  0.63868703  0.08371956     0.10400
Cu800      Cu  0.67705309  0.69111006  0.08266709     0.44200
Cu801      Cu  0.66760899  0.65118020  0.08357562     0.42000
Cu802      Cu  0.63760604  0.67945203  0.08859400     0.43900
N803        N  0.65895524  0.70621902  0.08492187    -0.33200
N804        N  0.64467085  0.70206239  0.08765663    -0.27500
C805        C  0.63604667  0.71466065  0.08941135    -0.03600
C806        C  0.64533360  0.72745474  0.08761248     0.08600
C807        C  0.65977973  0.72153614  0.08467117     0.02400
H808        H  0.62400081  0.71440538  0.09219584     0.10100
H809        H  0.67023667  0.72777812  0.08248742     0.09200
N810        N  0.63366563  0.65612964  0.08709985    -0.34700
N811        N  0.64461285  0.64589061  0.08532597    -0.26800
C812        C  0.63827824  0.63193226  0.08424188    -0.02100
C813        C  0.62251844  0.63340758  0.08523619     0.06500
C814        C  0.62004052  0.64894964  0.08708896     0.04600
H815        H  0.64475480  0.62152232  0.08281513     0.09700
H816        H  0.60915030  0.65473685  0.08786197     0.08600
N817        N  0.91068267  0.65038330  0.31888658    -0.25800
N818        N  0.91117619  0.66503040  0.31526676    -0.33700
C819        C  0.91075580  0.66643459  0.29993814     0.02500
C820        C  0.90978407  0.65194951  0.29368979     0.08500
C821        C  0.90967287  0.64203533  0.30599480    -0.04600
H822        H  0.91072061  0.67718811  0.29383214     0.09200
H823        H  0.90897712  0.62970567  0.30561310     0.10400
Cu824      Cu  0.91147643  0.68220575  0.33154711     0.44200
Cu825      Cu  0.91177688  0.64267977  0.34119819     0.42000
Cu826      Cu  0.91413983  0.67134502  0.37163511     0.43900
N827        N  0.91113501  0.69758333  0.34954936    -0.33200
N828        N  0.91235198  0.69386312  0.36415501    -0.27500
C829        C  0.91183732  0.70672427  0.37264130    -0.03600
C830        C  0.91016176  0.71916916  0.36287660     0.08600
C831        C  0.90966768  0.71278943  0.34833887     0.02400
H832        H  0.91274567  0.70691261  0.38497573     0.10100
H833        H  0.90800149  0.71862773  0.33758911     0.09200
N834        N  0.91496662  0.64783967  0.37525742    -0.34700
N835        N  0.91402464  0.63758207  0.36417496    -0.26800
C836        C  0.91467147  0.62351304  0.37026461    -0.02100
C837        C  0.91609414  0.62486759  0.38599632     0.06500
C838        C  0.91624645  0.64050134  0.38873473     0.04600
H839        H  0.91378175  0.61309445  0.36367052     0.09700
H840        H  0.91731741  0.64619012  0.39967631     0.08600
N841        N  0.68871373  0.91853431  0.34451037    -0.25800
N842        N  0.68646563  0.92436637  0.35826090    -0.33700
C843        C  0.69958431  0.92369631  0.36626759     0.02500
C844        C  0.71071182  0.91714748  0.35706947     0.08500
C845        C  0.70335121  0.91395603  0.34335241    -0.04600
H846        H  0.70100622  0.92820961  0.37767230     0.09200
H847        H  0.70824542  0.90891194  0.33320940     0.10400
Cu848      Cu  0.66586302  0.93362807  0.36509410     0.44200
Cu849      Cu  0.67206560  0.91852619  0.32765266     0.42000
Cu850      Cu  0.63576908  0.93730346  0.33661372     0.43900
N851        N  0.64406017  0.94123634  0.37001086    -0.33200
N852        N  0.63299216  0.94276350  0.35980040    -0.27500
C853        C  0.62005816  0.94683539  0.36717863    -0.03600
C854        C  0.62315994  0.94774067  0.38276184     0.08600
C855        C  0.63851776  0.94417544  0.38405198     0.02400
H856        H  0.60902986  0.94814763  0.36172461     0.10100
H857        H  0.64513115  0.94330961  0.39447801     0.09200
N858        N  0.64157900  0.92887062  0.31493217    -0.34700
N859        N  0.65462984  0.92183243  0.31195045    -0.26800
C860        C  0.65478855  0.91746495  0.29719572    -0.02100
C861        C  0.64117547  0.92189233  0.29041673     0.06500
C862        C  0.63309522  0.92915510  0.30203577     0.04600
H863        H  0.66428653  0.91168681  0.29178054     0.09700
H864        H  0.62175131  0.93401374  0.30128625     0.08600
N865        N  0.89719103  0.40298808  0.15970326    -0.25800
N866        N  0.88245561  0.40320694  0.16310011    -0.33700
C867        C  0.88067518  0.40165914  0.17825481     0.02500
C868        C  0.89497043  0.40039363  0.18486809     0.08500
C869        C  0.90525076  0.40137121  0.17277392    -0.04600
H870        H  0.86971090  0.40146893  0.18400693     0.09200
H871        H  0.91758344  0.40051070  0.17336260     0.10400
Cu872      Cu  0.86507057  0.40498016  0.14733995     0.44200
Cu873      Cu  0.90494657  0.40402747  0.13720841     0.42000
Cu874      Cu  0.87436204  0.40251385  0.10786605     0.43900
N875        N  0.84874398  0.40536493  0.13038847    -0.33200
N876        N  0.85200700  0.40386931  0.11570195    -0.27500
C877        C  0.83887020  0.40387058  0.10764321    -0.03600
C878        C  0.82683992  0.40567245  0.11782664     0.08600
C879        C  0.83352785  0.40656079  0.13213153     0.02400
H880        H  0.83814727  0.40278183  0.09532404     0.10100
H881        H  0.82775467  0.40759164  0.14303817     0.09200
N882        N  0.89764085  0.40307720  0.10320786    -0.34700
N883        N  0.90859270  0.40376549  0.11366030    -0.26800
C884        C  0.92225226  0.40377554  0.10655088    -0.02100
C885        C  0.91981512  0.40303728  0.09088164     0.06500
C886        C  0.90405870  0.40265874  0.08921815     0.04600
H887        H  0.93313914  0.40427697  0.11241469     0.09700
H888        H  0.89767354  0.40172348  0.07865287     0.08600
N889        N  0.84084820  0.13561137  0.39054557    -0.25800
N890        N  0.83659224  0.14971347  0.38717500    -0.33700
C891        C  0.82203335  0.14949657  0.38215181     0.02500
C892        C  0.81679177  0.13455213  0.38241194     0.08500
C893        C  0.82902054  0.12607742  0.38786436    -0.04600
H894        H  0.81573885  0.15951150  0.37860817     0.09200
H895        H  0.82947043  0.11381065  0.38930330     0.10400
Cu896      Cu  0.85061358  0.16876270  0.38933975     0.44200
Cu897      Cu  0.86288217  0.12970445  0.39759325     0.42000
Cu898      Cu  0.88921672  0.16135267  0.40184039     0.43900
N899        N  0.86660134  0.18588382  0.39326775    -0.33200
N900        N  0.88066881  0.18317059  0.39807633    -0.27500
C901        C  0.88822665  0.19651829  0.39936546    -0.03600
C902        C  0.87848846  0.20828357  0.39507679     0.08600
C903        C  0.86484795  0.20102602  0.39130136     0.02400
H904        H  0.89998948  0.19748171  0.40308010     0.10100
H905        H  0.85453976  0.20625504  0.38692490     0.09200
N906        N  0.89564725  0.13860094  0.40402231    -0.34700
N907        N  0.88607269  0.12695763  0.40263657    -0.26800
C908        C  0.89399698  0.11383384  0.40410841    -0.02100
C909        C  0.90934013  0.11737474  0.40644052     0.06500
C910        C  0.90986932  0.13322080  0.40634879     0.04600
H911        H  0.88903916  0.10255543  0.40293632     0.09700
H912        H  0.91987952  0.14038350  0.40774179     0.08600
N913        N  0.61182130  0.14627062  0.15252931    -0.25800
N914        N  0.61314297  0.16041991  0.15765689    -0.33700
C915        C  0.61637122  0.16007847  0.17271582     0.02500
C916        C  0.61719345  0.14495327  0.17733838     0.08500
C917        C  0.61425556  0.13652551  0.16419396    -0.04600
H918        H  0.61827195  0.17011786  0.17968547     0.09200
H919        H  0.61371680  0.12421664  0.16319393     0.10400
Cu920      Cu  0.61091023  0.17949212  0.14379344     0.44200
Cu921      Cu  0.60665285  0.14106707  0.12986383     0.42000
Cu922      Cu  0.59989003  0.17330373  0.10428062     0.43900
N923        N  0.60912580  0.19679253  0.12770632    -0.33200
N924        N  0.60500675  0.19463641  0.11330671    -0.27500
C925        C  0.60564134  0.20808330  0.10585273    -0.03600
C926        C  0.61039039  0.21927715  0.11607301     0.08600
C927        C  0.61249361  0.21162912  0.12980754     0.02400
H928        H  0.60292627  0.20951999  0.09385688     0.10100
H929        H  0.61669188  0.21634240  0.14045148     0.09200
N930        N  0.59838733  0.15060691  0.09759517    -0.34700
N931        N  0.60117240  0.13893651  0.10677553    -0.26800
C932        C  0.60049974  0.12593535  0.09858666    -0.02100
C933        C  0.59711383  0.12952675  0.08347796     0.06500
C934        C  0.59579869  0.14532669  0.08335788     0.04600
H935        H  0.60298442  0.11476307  0.10322935     0.09700
H936        H  0.59339790  0.15257022  0.07363339     0.08600
N937        N  0.64171433  0.35443659  0.09892267    -0.25800
N938        N  0.65602422  0.34988224  0.10057633    -0.33700
C939        C  0.65626989  0.33457646  0.10169091     0.02500
C940        C  0.64136556  0.32917214  0.10077657     0.08500
C941        C  0.63244415  0.34212835  0.09895961    -0.04600
H942        H  0.66657854  0.32792820  0.10319242     0.09200
H943        H  0.62009648  0.34266077  0.09830505     0.10400
Cu944      Cu  0.67450502  0.36467262  0.10217625     0.44200
Cu945      Cu  0.63556365  0.37724636  0.09763662     0.42000
Cu946      Cu  0.66636276  0.40514302  0.10172916     0.43900
N947        N  0.69116215  0.38146845  0.10395268    -0.33200
N948        N  0.68825237  0.39627682  0.10361524    -0.27500
C949        C  0.70151604  0.40404469  0.10479569    -0.03600
C950        C  0.71333672  0.39359954  0.10604572     0.08600
C951        C  0.70632307  0.37940290  0.10546839     0.02400
H952        H  0.70242887  0.41636497  0.10496941     0.10100
H953        H  0.71183051  0.36835184  0.10588335     0.09200
N954        N  0.64346179  0.41082308  0.09940917    -0.34700
N955        N  0.63233963  0.40069435  0.09771923    -0.26800
C956        C  0.61894208  0.40808907  0.09642487    -0.02100
C957        C  0.62169679  0.42366818  0.09741801     0.06500
C958        C  0.63741661  0.42493623  0.09930174     0.04600
H959        H  0.60804690  0.40245863  0.09470570     0.09700
H960        H  0.64401719  0.43529898  0.10076085     0.08600
N961        N  0.64216590  0.09547757  0.30623598    -0.25800
N962        N  0.65630558  0.10026540  0.30364610    -0.33700
C963        C  0.65713960  0.10634064  0.28955331     0.02500
C964        C  0.64286766  0.10532709  0.28279809     0.08500
C965        C  0.63363646  0.09829216  0.29367646    -0.04600
H966        H  0.66743127  0.11116374  0.28461028     0.09200
H967        H  0.62152737  0.09588209  0.29273340     0.10400
Cu968      Cu  0.67406986  0.09883086  0.31917824     0.44200
Cu969      Cu  0.63517050  0.08644341  0.32728097     0.42000
Cu970      Cu  0.66567683  0.08428471  0.35623042     0.43900
N971        N  0.69049509  0.09672978  0.33604098    -0.33200
N972        N  0.68746966  0.09134875  0.34983602    -0.27500
C973        C  0.70023568  0.09221710  0.35842817    -0.03600
C974        C  0.71187714  0.09845176  0.34955904     0.08600
C975        C  0.70523662  0.10111897  0.33541471     0.02400
H976        H  0.70088938  0.08879648  0.37030593     0.10100
H977        H  0.71051334  0.10649428  0.32557908     0.09200
N978        N  0.64275321  0.07951878  0.36044436    -0.34700
N979        N  0.63169842  0.08011306  0.35011972    -0.26800
C980        C  0.61822709  0.07729603  0.35712896    -0.02100
C981        C  0.62088594  0.07491001  0.37266420     0.06500
C982        C  0.63662446  0.07641973  0.37421821     0.04600
H983        H  0.60732134  0.07733744  0.35131701     0.09700
H984        H  0.64315685  0.07614795  0.38470616     0.08600
N985        N  0.90668883  0.34321339  0.36936231    -0.25800
N986        N  0.90394930  0.33917898  0.35504880    -0.33700
C987        C  0.90058954  0.32419100  0.35461236     0.02500
C988        C  0.90123466  0.31844815  0.36940262     0.08500
C989        C  0.90515611  0.33089443  0.37844587    -0.04600
H990        H  0.89758538  0.31805009  0.34428572     0.09200
H991        H  0.90688345  0.33103103  0.39070426     0.10400
Cu992      Cu  0.90485118  0.35432095  0.33685131     0.44200
Cu993      Cu  0.91180222  0.36544307  0.37572368     0.42000
Cu994      Cu  0.91705602  0.39308745  0.34488193     0.43900
N995        N  0.90755903  0.37102454  0.32027355    -0.33200
N996        N  0.91244064  0.38505549  0.32304123    -0.27500
C997        C  0.91324014  0.39278265  0.30973852    -0.03600
C998        C  0.90863095  0.38312293  0.29799260     0.08600
C999        C  0.90504445  0.36945561  0.30519469     0.02400
H1000       H  0.91708923  0.40448789  0.30874655     0.10100
H1001       H  0.90073900  0.35910386  0.29996138     0.09200
N1002       N  0.91739192  0.39861079  0.36795627    -0.34700
N1003       N  0.91522929  0.38862778  0.37910535    -0.26800
C1004       C  0.91476511  0.39610213  0.39254530    -0.02100
C1005       C  0.91672859  0.41158010  0.38977383     0.06500
C1006       C  0.91843133  0.41269484  0.37402149     0.04600
H1007       H  0.91254054  0.39066049  0.40343441     0.09700
H1008       H  0.92011765  0.42296381  0.36736054     0.08600
N1009       N  0.14832870  0.40643879  0.15936364    -0.25800
N1010       N  0.16292814  0.40829494  0.16281609    -0.33700
C1011       C  0.16447504  0.40919326  0.17806430     0.02500
C1012       C  0.15015617  0.40758369  0.18469167     0.08500
C1013       C  0.14016249  0.40594255  0.17242441    -0.04600
H1014       H  0.17534842  0.41057175  0.18380620     0.09200
H1015       H  0.12797165  0.40381925  0.17290966     0.10400
Cu1016     Cu  0.18043532  0.40755698  0.14707183     0.44200
Cu1017     Cu  0.14063369  0.40383783  0.13702822     0.42000
Cu1018     Cu  0.17073627  0.40061437  0.10788074     0.43900
N1019       N  0.19653936  0.40487243  0.13008537    -0.33200
N1020       N  0.19312530  0.40254466  0.11555677    -0.27500
C1021       C  0.20619757  0.40163243  0.10745542    -0.03600
C1022       C  0.21848797  0.40336941  0.11743711     0.08600
C1023       C  0.21179728  0.40529038  0.13171496     0.02400
H1024       H  0.20659683  0.40002475  0.09519110     0.10100
H1025       H  0.21746980  0.40659733  0.14262620     0.09200
N1026       N  0.14743988  0.40018623  0.10326226    -0.34700
N1027       N  0.13656531  0.40157099  0.11370772    -0.26800
C1028       C  0.12285782  0.40143819  0.10668968    -0.02100
C1029       C  0.12517232  0.39985536  0.09104797     0.06500
C1030       C  0.14093327  0.39905338  0.08936389     0.04600
H1031       H  0.11205040  0.40274926  0.11258077     0.09700
H1032       H  0.14729542  0.39765687  0.07883668     0.08600
N1033       N  0.42008758  0.14326692  0.16199165    -0.25800
N1034       N  0.41860876  0.15751812  0.16677934    -0.33700
C1035       C  0.41425626  0.15746707  0.18153656     0.02500
C1036       C  0.41291828  0.14245474  0.18636623     0.08500
C1037       C  0.41673971  0.13375019  0.17364368    -0.04600
H1038       H  0.41253327  0.16765558  0.18831470     0.09200
H1039       H  0.41695449  0.12142202  0.17283509     0.10400
Cu1040     Cu  0.42246998  0.17657196  0.15325241     0.44200
Cu1041     Cu  0.42641999  0.13756646  0.13975583     0.42000
Cu1042     Cu  0.43137181  0.16988811  0.11377944     0.43900
N1043       N  0.42557614  0.19397635  0.13748785    -0.33200
N1044       N  0.42871992  0.19152573  0.12290227    -0.27500
C1045       C  0.42933925  0.20500374  0.11553084    -0.03600
C1046       C  0.42646497  0.21654700  0.12601395     0.08600
C1047       C  0.42413934  0.20908335  0.13982747     0.02400
H1048       H  0.43167340  0.20624549  0.10343286     0.10100
H1049       H  0.42108957  0.21417390  0.15068415     0.09200
N1050       N  0.43304274  0.14725485  0.10719386    -0.34700
N1051       N  0.43152443  0.13549449  0.11658458    -0.26800
C1052       C  0.43297061  0.12249475  0.10848191    -0.02100
C1053       C  0.43538921  0.12627686  0.09326070     0.06500
C1054       C  0.43537198  0.14207395  0.09289570     0.04600
H1055       H  0.43177482  0.11114581  0.11323763     0.09700
H1056       H  0.43685887  0.14931634  0.08297174     0.08600
N1057       N  0.19753635  0.14231126  0.39840489    -0.25800
N1058       N  0.20146357  0.15607647  0.39356273    -0.33700
C1059       C  0.21645248  0.15607765  0.38997895     0.02500
C1060       C  0.22223733  0.14161793  0.39281214     0.08500
C1061       C  0.20991017  0.13321059  0.39816478    -0.04600
H1062       H  0.22265713  0.16587686  0.38566369     0.09200
H1063       H  0.20981328  0.12122902  0.40121435     0.10400
Cu1064     Cu  0.18605016  0.17403011  0.39199431     0.44200
Cu1065     Cu  0.17533960  0.13633914  0.40419211     0.42000
Cu1066     Cu  0.14666168  0.16636229  0.40375458     0.43900
N1067       N  0.16875170  0.19026774  0.39176806    -0.33200
N1068       N  0.15455341  0.18773204  0.39642967    -0.27500
C1069       C  0.14643407  0.20071821  0.39480974    -0.03600
C1070       C  0.15594155  0.21188564  0.38868459     0.08600
C1071       C  0.16998965  0.20481218  0.38693430     0.02400
H1072       H  0.13439863  0.20182396  0.39749483     0.10100
H1073       H  0.18040658  0.20988341  0.38256456     0.09200
N1074       N  0.14174029  0.14336572  0.40810756    -0.34700
N1075       N  0.15224824  0.13251150  0.40798174    -0.26800
C1076       C  0.14540229  0.11885012  0.40978590    -0.02100
C1077       C  0.12978533  0.12111342  0.41118218     0.06500
C1078       C  0.12789382  0.13682983  0.41013738     0.04600
H1079       H  0.15137714  0.10803890  0.40980071     0.09700
H1080       H  0.11717496  0.14299406  0.41009002     0.08600
N1081       N  0.39588147  0.10684415  0.32066441    -0.25800
N1082       N  0.38160435  0.11144631  0.31888580    -0.33700
C1083       C  0.37947248  0.11580220  0.30430893     0.02500
C1084       C  0.39305087  0.11380286  0.29638165     0.08500
C1085       C  0.40324597  0.10814320  0.30717367    -0.04600
H1086       H  0.36879090  0.12018680  0.29989532     0.09200
H1087       H  0.41503592  0.10489715  0.30533425     0.10400
Cu1088     Cu  0.36530981  0.11097762  0.33598381     0.44200
Cu1089     Cu  0.40431335  0.09888545  0.34143792     0.42000
Cu1090     Cu  0.37655535  0.09753753  0.37302082     0.43900
N1091       N  0.35019442  0.10828147  0.35394301    -0.33200
N1092       N  0.35423904  0.10352741  0.36770973    -0.27500
C1093       C  0.34179347  0.10334284  0.37681594    -0.03600
C1094       C  0.32931854  0.10806062  0.36824515     0.08600
C1095       C  0.33510083  0.11110035  0.35382058     0.02400
H1096       H  0.34183497  0.09999166  0.38873618     0.10100
H1097       H  0.32888058  0.11543730  0.34403895     0.09200
N1098       N  0.39953582  0.09203424  0.37508897    -0.34700
N1099       N  0.40953890  0.09234817  0.36372268    -0.26800
C1100       C  0.42342575  0.08861642  0.36920984    -0.02100
C1101       C  0.42215812  0.08588996  0.38482184     0.06500
C1102       C  0.40679776  0.08816232  0.38807778     0.04600
H1103       H  0.43367491  0.08812581  0.36229959     0.09700
H1104       H  0.40133841  0.08769749  0.39917829     0.08600
N1105       N  0.12827999  0.34728853  0.36583610    -0.25800
N1106       N  0.12816817  0.34374979  0.35112600    -0.33700
C1107       C  0.13046915  0.32867137  0.34947358     0.02500
C1108       C  0.13214279  0.32221147  0.36384282     0.08500
C1109       C  0.13067269  0.33441800  0.37396785    -0.04600
H1110       H  0.13142231  0.32297568  0.33851813     0.09200
H1111       H  0.13131167  0.33401806  0.38632475     0.10400
Cu1112     Cu  0.12612669  0.35953421  0.33373312     0.44200
Cu1113     Cu  0.12575194  0.36974514  0.37371182     0.42000
Cu1114     Cu  0.12369750  0.39914189  0.34376642     0.43900
N1115       N  0.12658430  0.37692965  0.31783526    -0.33200
N1116       N  0.12595426  0.39156554  0.32145073    -0.27500
C1117       C  0.12729803  0.39993559  0.30860359    -0.03600
C1118       C  0.12878226  0.39002678  0.29630714     0.08600
C1119       C  0.12829483  0.37554013  0.30262790     0.02400
H1120       H  0.12713946  0.41228293  0.30827604     0.10100
H1121       H  0.12955079  0.36475095  0.29670362     0.09200
N1122       N  0.12217505  0.40362504  0.36697733    -0.34700
N1123       N  0.12315433  0.39316467  0.37787113    -0.26800
C1124       C  0.12239026  0.40020675  0.39157325    -0.02100
C1125       C  0.12078615  0.41580241  0.38916861     0.06500
C1126       C  0.12066198  0.41749469  0.37342286     0.04600
H1127       H  0.12295778  0.39438144  0.40247747     0.09700
H1128       H  0.12002090  0.42807687  0.36707028     0.08600
N1129       N  0.40460785  0.35340509  0.10814340    -0.25800
N1130       N  0.39020072  0.34878912  0.10862907    -0.33700
C1131       C  0.38977047  0.33359847  0.11066272     0.02500
C1132       C  0.40463434  0.32827223  0.11145632     0.08500
C1133       C  0.41378605  0.34115037  0.10974722    -0.04600
H1134       H  0.37935500  0.32691361  0.11129973     0.09200
H1135       H  0.42615595  0.34162814  0.10992576     0.10400
Cu1136     Cu  0.37161497  0.36308581  0.10640954     0.44200
Cu1137     Cu  0.41064092  0.37630443  0.10568273     0.42000
Cu1138     Cu  0.37846915  0.40319602  0.10248506     0.43900
N1139       N  0.35434095  0.37891879  0.10411386    -0.33200
N1140       N  0.35675483  0.39373754  0.10252750    -0.27500
C1141       C  0.34317644  0.40091964  0.10170504    -0.03600
C1142       C  0.33171755  0.39003537  0.10297017     0.08600
C1143       C  0.33921433  0.37623132  0.10446664     0.02400
H1144       H  0.34177046  0.41316147  0.10088506     0.10100
H1145       H  0.33407683  0.36506679  0.10594876     0.09200
N1146       N  0.40131000  0.40948178  0.10222214    -0.34700
N1147       N  0.41293397  0.39988860  0.10340929    -0.26800
C1148       C  0.42609371  0.40787365  0.10254541    -0.02100
C1149       C  0.42256635  0.42318289  0.10063458     0.06500
C1150       C  0.40675011  0.42375508  0.10050304     0.04600
H1151       H  0.43737734  0.40284041  0.10290300     0.09700
H1152       H  0.39966968  0.43379273  0.09928773     0.08600
O1153       O  0.53777805  0.51384399  0.10014016    -0.71500
O1154       O  0.50544976  0.54587163  0.09571358    -0.72500
O1155       O  0.50536733  0.51399632  0.09960638    -0.61100
O1156       O  0.53789220  0.54587028  0.09639678    -0.69500
O1157       O  0.53842136  0.54322288  0.07116050    -0.69000
O1158       O  0.50559534  0.51093951  0.07443777    -0.60300
O1159       O  0.50581892  0.54305082  0.07050261    -0.72800
O1160       O  0.53818404  0.51091409  0.07494966    -0.71600
Cu1161     Cu  0.52162557  0.53000985  0.09880998     1.04600
Cu1162     Cu  0.52204661  0.52692776  0.07186229     1.04300
C1163       C  0.54309494  0.50723339  0.08823111     0.94700
C1164       C  0.50033492  0.54940622  0.08247339     0.93900
C1165       C  0.50015603  0.50749112  0.08759854     0.86000
C1166       C  0.54338368  0.54961329  0.08337417     0.92300
O1167       O  0.12957091  0.50341634  0.47626483    -0.71500
O1168       O  0.12770883  0.53380292  0.51072671    -0.72500
O1169       O  0.12970405  0.50162498  0.50879790    -0.61100
O1170       O  0.12783105  0.53578909  0.47836255    -0.69500
O1171       O  0.10251886  0.53457683  0.47805870    -0.69000
O1172       O  0.10437489  0.49982321  0.50865330    -0.60300
O1173       O  0.10236386  0.53242887  0.51059643    -0.72800
O1174       O  0.10427591  0.50210230  0.47614163    -0.71600
Cu1175     Cu  0.12955605  0.51870083  0.49353031     1.04600
Cu1176     Cu  0.10248641  0.51716978  0.49336496     1.04300
C1177       C  0.11718351  0.49789386  0.47071723     0.94700
C1178       C  0.11475286  0.53798346  0.51607418     0.93900
C1179       C  0.11740680  0.49531589  0.51359190     0.86000
C1180       C  0.11500071  0.54072531  0.47341453     0.92300
O1181       O  0.54458598  0.08674355  0.50050357    -0.71500
O1182       O  0.51075425  0.08774664  0.46975371    -0.72500
O1183       O  0.51231175  0.08773568  0.50225563    -0.61100
O1184       O  0.54310051  0.08653597  0.46790859    -0.69500
O1185       O  0.54214849  0.06128418  0.46808025    -0.69000
O1186       O  0.51141610  0.06245433  0.50236315    -0.60300
O1187       O  0.50967037  0.06248872  0.46972135    -0.72800
O1188       O  0.54375226  0.06146343  0.50080109    -0.71600
Cu1189     Cu  0.52773394  0.08804877  0.48508564     1.04600
Cu1190     Cu  0.52672924  0.06103941  0.48522359     1.04300
C1191       C  0.54936386  0.07402438  0.50580423     0.94700
C1192       C  0.50481455  0.07535458  0.46478285     0.93900
C1193       C  0.50709165  0.07526865  0.50787463     0.86000
C1194       C  0.54743307  0.07369582  0.46242411     0.92300
O1195       O  0.93501659  0.53717408  0.50164181    -0.71500
O1196       O  0.93292007  0.50334385  0.47050339    -0.72500
O1197       O  0.93296163  0.53573265  0.46931995    -0.61100
O1198       O  0.93518600  0.50463077  0.50284548    -0.69500
O1199       O  0.90990418  0.50450650  0.50445412    -0.69000
O1200       O  0.90767696  0.53582106  0.47093135    -0.60300
O1201       O  0.90764556  0.50343566  0.47213717    -0.72800
O1202       O  0.90972473  0.53700230  0.50328842    -0.71600
Cu1203     Cu  0.93489835  0.52022726  0.48603430     1.04600
Cu1204     Cu  0.90786844  0.52019437  0.48777888     1.04300
C1205       C  0.92265326  0.54253734  0.50733829     0.94700
C1206       C  0.91991881  0.49800750  0.46636093     0.93900
C1207       C  0.92002102  0.54077698  0.46480263     0.86000
C1208       C  0.92289472  0.49943130  0.50885015     0.92300
O1209       O  0.53645965  0.94331260  0.47046186    -0.71500
O1210       O  0.50383581  0.94511641  0.50285240    -0.72500
O1211       O  0.50374275  0.94263408  0.47046078    -0.61100
O1212       O  0.53626321  0.94570959  0.50294585    -0.69500
O1213       O  0.53605254  0.97095632  0.50106809    -0.69000
O1214       O  0.50324626  0.96783784  0.46866324    -0.60300
O1215       O  0.50341414  0.97032826  0.50120356    -0.72800
O1216       O  0.53604081  0.96853311  0.46861785    -0.71600
Cu1217     Cu  0.52009796  0.94333423  0.48671431     1.04600
Cu1218     Cu  0.51967198  0.97028989  0.48479023     1.04300
C1219       C  0.54157936  0.95565566  0.46450239     0.94700
C1220       C  0.49845851  0.95796169  0.50725176     0.93900
C1221       C  0.49813667  0.95474805  0.46453617     0.86000
C1222       C  0.54126805  0.95877486  0.50721861     0.92300
O1223       O  0.53884960  0.54716011  0.87429602    -0.71500
O1224       O  0.50514693  0.51584025  0.87656974    -0.72500
O1225       O  0.50627934  0.54824823  0.87526515    -0.61100
O1226       O  0.53765167  0.51475510  0.87556474    -0.69500
O1227       O  0.53854058  0.51593375  0.90086555    -0.69000
O1228       O  0.50682285  0.54892009  0.90065340    -0.60300
O1229       O  0.50610642  0.51671538  0.90188868    -0.72800
O1230       O  0.53945292  0.54828941  0.89959379    -0.71600
Cu1231     Cu  0.52195508  0.53148536  0.87453609     1.04600
Cu1232     Cu  0.52276884  0.53252218  0.90161395     1.04300
C1233       C  0.54460243  0.55264529  0.88659697     0.94700
C1234       C  0.50028336  0.51128331  0.88961006     0.93900
C1235       C  0.50141161  0.55369614  0.88794314     0.86000
C1236       C  0.54310680  0.51002738  0.88828725     0.92300
O1237       O  0.00414428  0.00659661  0.42101750    -0.71500
O1238       O  0.03741516  0.03863736  0.42317699    -0.72500
O1239       O  0.00447508  0.03899901  0.42218305    -0.61100
O1240       O  0.03679891  0.00620935  0.42209582    -0.69500
O1241       O  0.03778861  0.00699623  0.39680686    -0.69000
O1242       O  0.00512934  0.03964010  0.39688080    -0.60300
O1243       O  0.03805302  0.03948918  0.39786458    -0.72800
O1244       O  0.00507966  0.00719569  0.39571024    -0.71600
Cu1245     Cu  0.02069384  0.02261727  0.42297899     1.04600
Cu1246     Cu  0.02155557  0.02340050  0.39594472     1.04300
C1247       C  0.99927214  0.00183681  0.40804243     0.94700
C1248       C  0.04321654  0.04397118  0.41082416     0.93900
C1249       C  0.99932847  0.04424584  0.40952849     0.86000
C1250       C  0.04245763  0.00136939  0.40949205     0.92300
O1251       O  0.00777022  0.00625467  0.60051148    -0.71500
O1252       O  0.04176321  0.03727630  0.59945769    -0.72500
O1253       O  0.00886429  0.03877212  0.60080244    -0.61100
O1254       O  0.04054281  0.00474819  0.59897479    -0.69500
O1255       O  0.03902018  0.00519601  0.57368877    -0.69000
O1256       O  0.00824203  0.03920376  0.57547247    -0.60300
O1257       O  0.04075216  0.03741643  0.57413932    -0.72800
O1258       O  0.00664275  0.00696001  0.57521191    -0.71600
Cu1259     Cu  0.02477456  0.02177575  0.60085239     1.04600
Cu1260     Cu  0.02362763  0.02222275  0.57380268     1.04300
C1261       C  0.00171208  0.00176778  0.58796439     0.94700
C1262       C  0.04687495  0.04204101  0.58659077     0.93900
C1263       C  0.00342037  0.04424703  0.58833279     0.86000
C1264       C  0.04478091  0.99959688  0.58590479     0.92300
O1265       O  0.45306084  0.04402205  0.97100978    -0.71500
O1266       O  0.45463854  0.01132026  0.00363503    -0.72500
O1267       O  0.45490197  0.01157926  0.97096570    -0.61100
O1268       O  0.45308666  0.04389474  0.00340467    -0.69500
O1269       O  0.42778034  0.04261058  0.00329868    -0.69000
O1270       O  0.42959738  0.01023953  0.97072812    -0.60300
O1271       O  0.42934295  0.01020476  0.00325245    -0.72800
O1272       O  0.42777544  0.04252661  0.97102701    -0.71600
Cu1273     Cu  0.45481575  0.02772058  0.98726198     1.04600
Cu1274     Cu  0.42777183  0.02631269  0.98708346     1.04300
C1275       C  0.44009034  0.04858207  0.96598612     0.94700
C1276       C  0.44210362  0.00559801  0.00866472     0.93900
C1277       C  0.44256411  0.00586951  0.96555115     0.86000
C1278       C  0.44016257  0.04856523  0.00837221     0.92300
O1279       O  0.03787372  0.38459615  0.00416784    -0.71500
O1280       O  0.00589608  0.38545144  0.97075726    -0.72500
O1281       O  0.03833127  0.38451026  0.97166975    -0.61100
O1282       O  0.00514224  0.38530092  0.00344570    -0.69500
O1283       O  0.00628038  0.41061833  0.00386498    -0.69000
O1284       O  0.03871876  0.40982795  0.97154388    -0.60300
O1285       O  0.00652101  0.41071710  0.97133077    -0.72800
O1286       O  0.03863881  0.40986097  0.00382387    -0.71600
Cu1287     Cu  0.02175306  0.38405619  0.98753952     1.04600
Cu1288     Cu  0.02252859  0.41110107  0.98766508     1.04300
C1289       C  0.04353435  0.39718103  0.00909645     0.94700
C1290       C  0.00132538  0.39833125  0.96557331     0.93900
C1291       C  0.04372421  0.39707583  0.96651135     0.86000
C1292       C  0.00055003  0.39809900  0.00877440     0.92300
O1293       O  0.59374762  0.01064621  0.96252299    -0.71500
O1294       O  0.58925855  0.04475427  0.99312738    -0.72500
O1295       O  0.58961698  0.04263618  0.96072546    -0.61100
O1296       O  0.59295525  0.01264660  0.99485225    -0.69500
O1297       O  0.61811158  0.01558819  0.99539642    -0.69000
O1298       O  0.61482586  0.04560731  0.96070059    -0.60300
O1299       O  0.61441957  0.04776496  0.99318715    -0.72800
O1300       O  0.61890615  0.01364433  0.96299804    -0.71600
Cu1301     Cu  0.59053312  0.02757071  0.97780462     1.04600
Cu1302     Cu  0.61744596  0.03077758  0.97808861     1.04300
C1303       C  0.60707172  0.00673397  0.95789132     0.94700
C1304       C  0.60120214  0.05168185  0.99804450     0.93900
C1305       C  0.60164838  0.04881649  0.95519768     0.86000
C1306       C  0.60595157  0.00923680  0.00055346     0.92300
O1307       O  0.00585675  0.59594987  0.97364055    -0.71500
O1308       O  0.03737370  0.59442698  0.00734828    -0.72500
O1309       O  0.00495183  0.59712828  0.00636549    -0.61100
O1310       O  0.03828199  0.59324740  0.97473700    -0.69500
O1311       O  0.04015614  0.61845256  0.97405067    -0.69000
O1312       O  0.00731830  0.62229028  0.00540438    -0.60300
O1313       O  0.03934739  0.61962458  0.00627573    -0.72800
O1314       O  0.00806147  0.62116040  0.97309434    -0.71600
Cu1315     Cu  0.02152372  0.59426794  0.99055409     1.04600
Cu1316     Cu  0.02378838  0.62120575  0.98967630     1.04300
C1317       C  0.00201890  0.60887248  0.96799377     0.94700
C1318       C  0.04334138  0.60689814  0.01216144     0.93900
C1319       C  0.00094733  0.61039931  0.01099778     0.86000
C1320       C  0.04448241  0.60535054  0.96933276     0.92300
C1321       C  0.47281048  0.47483163  0.07857023     0.14100
C1322       C  0.46511639  0.47312973  0.09258229     0.01100
C1323       C  0.46842957  0.48314025  0.10467983     0.16100
C1324       C  0.47960066  0.49445921  0.10297155     0.25500
C1325       C  0.48776989  0.49593299  0.08908515    -0.40900
C1326       C  0.48404386  0.48612344  0.07680671     0.32500
C1327       C  0.45405096  0.46053713  0.09479141     0.01200
F1328       F  0.46078310  0.48195569  0.11817707    -0.13200
F1329       F  0.49150805  0.48714001  0.06320110    -0.13700
C1330       C  0.45721958  0.44885707  0.10533865     0.16100
C1331       C  0.44699762  0.43668628  0.10722456     0.25500
C1332       C  0.43334276  0.43609889  0.09870169    -0.40800
C1333       C  0.43010529  0.44793364  0.08827106     0.32400
C1334       C  0.44043193  0.46001472  0.08628335     0.14200
F1335       F  0.47035390  0.44915043  0.11365736    -0.13200
F1336       F  0.41717742  0.44759122  0.07964687    -0.13700
F1337       F  0.45030756  0.42566102  0.11763461    -0.16000
F1338       F  0.43711345  0.47126684  0.07611606    -0.14500
F1339       F  0.46977305  0.46521411  0.06673826    -0.14500
F1340       F  0.48231477  0.50399976  0.11494651    -0.15900
C1341       C  0.11044412  0.45279000  0.40944921     0.14100
C1342       C  0.11942768  0.45188701  0.42278483     0.01100
C1343       C  0.12881880  0.43904630  0.42498948     0.16100
C1344       C  0.12920689  0.42731239  0.41410745     0.25500
C1345       C  0.12017515  0.42814918  0.40079705    -0.40900
C1346       C  0.11080280  0.44103566  0.39856091     0.32500
C1347       C  0.11880272  0.46412717  0.43456485     0.01200
F1348       F  0.13747341  0.43774608  0.43783682    -0.13200
F1349       F  0.10169805  0.44211719  0.38600783    -0.13700
C1350       C  0.10480145  0.46809043  0.44139384     0.16100
C1351       C  0.10423526  0.47916773  0.45293627     0.25500
C1352       C  0.11773617  0.48648318  0.45804855    -0.40800
C1353       C  0.13175174  0.48258442  0.45101565     0.32400
C1354       C  0.13223922  0.47159210  0.43936798     0.14200
F1355       F  0.09166472  0.46088203  0.43720175    -0.13200
F1356       F  0.14506266  0.48936970  0.45535089    -0.13700
F1357       F  0.09042568  0.48246078  0.45925952    -0.16000
F1358       F  0.14587895  0.46830888  0.43267465    -0.14500
F1359       F  0.10142656  0.46514896  0.40688953    -0.14500
F1360       F  0.13876110  0.41532585  0.41642237    -0.15900
C1361       C  0.47549226  0.06346015  0.43471707     0.14100
C1362       C  0.46939608  0.07763843  0.43041566     0.01100
C1363       C  0.47463995  0.09096969  0.43764253     0.16100
C1364       C  0.48596817  0.09021597  0.44890006     0.25500
C1365       C  0.49237087  0.07603017  0.45315927    -0.40900
C1366       C  0.48689681  0.06263072  0.44595823     0.32500
C1367       C  0.45764111  0.07867942  0.41829230     0.01200
F1368       F  0.46864877  0.10477069  0.43386152    -0.13200
F1369       F  0.49271292  0.04871490  0.44955138    -0.13700
C1370       C  0.44296598  0.07255416  0.42060689     0.16100
C1371       C  0.43154713  0.07450846  0.40954508     0.25500
C1372       C  0.43460452  0.08271502  0.39597055    -0.40800
C1373       C  0.44951323  0.08845556  0.39354433     0.32400
C1374       C  0.46089084  0.08644349  0.40461281     0.14200
F1375       F  0.43956712  0.06508797  0.43381377    -0.13200
F1376       F  0.45299675  0.09664161  0.38081294    -0.13700
F1377       F  0.41753035  0.06829320  0.41214313    -0.16000
F1378       F  0.47509157  0.09228112  0.40208146    -0.14500
F1379       F  0.47063492  0.05044213  0.42775668    -0.14500
F1380       F  0.49058293  0.10345234  0.45560965    -0.15900
C1381       C  0.10706022  0.08474478  0.40385010     0.14100
C1382       C  0.09396908  0.08711040  0.41289391     0.01100
C1383       C  0.09294786  0.10045145  0.42180500     0.16100
C1384       C  0.10463154  0.11146374  0.42134231     0.25500
C1385       C  0.11765257  0.10922591  0.41211277    -0.40900
C1386       C  0.11883274  0.09564152  0.40351815     0.32500
C1387       C  0.08108253  0.07601208  0.41246246     0.01200
F1388       F  0.08042196  0.10299560  0.43064845    -0.13200
F1389       F  0.13108454  0.09315671  0.39427999    -0.13700
C1390       C  0.07696968  0.06763140  0.42554785     0.16100
C1391       C  0.06466931  0.05728915  0.42508160     0.25500
C1392       C  0.05614593  0.05517397  0.41148099    -0.40800
C1393       C  0.06042700  0.06360466  0.39836777     0.32400
C1394       C  0.07274935  0.07387185  0.39888137     0.14200
F1395       F  0.08509174  0.06924320  0.43871342    -0.13200
F1396       F  0.05260694  0.06209394  0.38501553    -0.13700
F1397       F  0.06137988  0.04910762  0.43788003    -0.16000
F1398       F  0.07641992  0.08195972  0.38612098    -0.14500
F1399       F  0.10838514  0.07188437  0.39524445    -0.14500
F1400       F  0.10328847  0.12424022  0.43006214    -0.15900
C1401       C  0.26062747  0.13472015  0.37387541     0.14100
C1402       C  0.26762829  0.12466708  0.38428383     0.01100
C1403       C  0.25975018  0.12045267  0.39766824     0.16100
C1404       C  0.24501677  0.12604946  0.40049734     0.25500
C1405       C  0.23797104  0.13604313  0.39003588    -0.40900
C1406       C  0.24595418  0.14039139  0.37673774     0.32500
C1407       C  0.28319924  0.11878157  0.38112221     0.01200
F1408       F  0.26624059  0.11073516  0.40788442    -0.13200
F1409       F  0.23938392  0.14975978  0.36625112    -0.13700
C1410       C  0.29533377  0.12186559  0.39125539     0.16100
C1411       C  0.31031854  0.11768412  0.38744147     0.25500
C1412       C  0.31339214  0.11052522  0.37335050    -0.40800
C1413       C  0.30114463  0.10678535  0.36357811     0.32400
C1414       C  0.28617202  0.11080793  0.36747161     0.14200
F1415       F  0.29279388  0.12966486  0.40445766    -0.13200
F1416       F  0.30368496  0.09927440  0.35020486    -0.13700
F1417       F  0.32190619  0.12152772  0.39707401    -0.16000
F1418       F  0.27456109  0.10710788  0.35780167    -0.14500
F1419       F  0.26809150  0.13916322  0.36096733    -0.14500
F1420       F  0.23776376  0.12194127  0.41362565    -0.15900
C1421       C  0.14775031  0.28658129  0.38329525     0.14100
C1422       C  0.14215946  0.27490145  0.37375622     0.01100
C1423       C  0.13333938  0.27880301  0.36090625     0.16100
C1424       C  0.12997135  0.29412843  0.35775605     0.25500
C1425       C  0.13548745  0.30590599  0.36735450    -0.40900
C1426       C  0.14449755  0.30192567  0.38012235     0.32500
C1427       C  0.14539408  0.25865140  0.37735184     0.01200
F1428       F  0.12769429  0.26771591  0.35157937    -0.13200
F1429       F  0.15061957  0.31287765  0.38928871    -0.13700
C1430       C  0.13965145  0.25204121  0.39085750     0.16100
C1431       C  0.14284150  0.23676563  0.39442525     0.25500
C1432       C  0.15202826  0.22788017  0.38464024    -0.40800
C1433       C  0.15771043  0.23450824  0.37107061     0.32400
C1434       C  0.15433061  0.24972261  0.36741453     0.14200
F1435       F  0.13087860  0.26040672  0.40056817    -0.13200
F1436       F  0.16630576  0.22616956  0.36117971    -0.13700
F1437       F  0.13736798  0.23083054  0.40771021    -0.16000
F1438       F  0.16001056  0.25583475  0.35429006    -0.14500
F1439       F  0.15665721  0.28311467  0.39554599    -0.14500
F1440       F  0.12093318  0.29734914  0.34553748    -0.15900
C1441       C  0.42529171  0.07584682  0.03880483     0.14100
C1442       C  0.43864779  0.08382211  0.04281169     0.01100
C1443       C  0.45238249  0.08062851  0.03516357     0.16100
C1444       C  0.45286324  0.06934978  0.02382705     0.25500
C1445       C  0.43956560  0.06093738  0.02002517    -0.40900
C1446       C  0.42571237  0.06449816  0.02753856     0.32500
C1447       C  0.43835109  0.09503518  0.05542819     0.01200
F1448       F  0.46533960  0.08849583  0.03867849    -0.13200
F1449       F  0.41258521  0.05681777  0.02427000    -0.13700
C1450       C  0.44575642  0.09173979  0.06929652     0.16100
C1451       C  0.44489276  0.10195557  0.08157822     0.25500
C1452       C  0.43672354  0.11571125  0.08010969    -0.40800
C1453       C  0.42958549  0.11913138  0.06605896     0.32400
C1454       C  0.43032203  0.10880782  0.05384751     0.14200
F1455       F  0.45356014  0.07844952  0.07101947    -0.13200
F1456       F  0.42140795  0.13218552  0.06430256    -0.13700
F1457       F  0.45224629  0.09849775  0.09482222    -0.16000
F1458       F  0.42315854  0.11220769  0.04047897    -0.14500
F1459       F  0.41190502  0.07876367  0.04614940    -0.14500
F1460       F  0.46636527  0.06677269  0.01656715    -0.15900
C1461       C  0.40499877  0.28725569  0.12518169     0.14100
C1462       C  0.41724462  0.28114009  0.11681269     0.01100
C1463       C  0.42568609  0.29063238  0.10695872     0.16100
C1464       C  0.42187548  0.30611154  0.10547279     0.25500
C1465       C  0.40939945  0.31220368  0.11364861    -0.40900
C1466       C  0.40105961  0.30262635  0.12358591     0.32500
C1467       C  0.42101278  0.26479309  0.11845909     0.01200
F1468       F  0.43758990  0.28488894  0.09879639    -0.13200
F1469       F  0.38922800  0.30818883  0.13197937    -0.13700
C1470       C  0.41711285  0.25436164  0.10688228     0.16100
C1471       C  0.41916077  0.23866353  0.10916309     0.25500
C1472       C  0.42522124  0.23318362  0.12307744    -0.40800
C1473       C  0.42956768  0.24377139  0.13444114     0.32400
C1474       C  0.42741669  0.25942571  0.13215531     0.14200
F1475       F  0.41068809  0.25935085  0.09364214    -0.13200
F1476       F  0.43599366  0.23900718  0.14775652    -0.13700
F1477       F  0.41444069  0.22884250  0.09807835    -0.16000
F1478       F  0.43141814  0.26939087  0.14339810    -0.14500
F1479       F  0.39670727  0.27822717  0.13475718    -0.14500
F1480       F  0.43002524  0.31498094  0.09564464    -0.15900
C1481       C  0.39565230  0.14099089  0.22622216     0.14100
C1482       C  0.40316659  0.12832405  0.23255356     0.01100
C1483       C  0.41328114  0.11982535  0.22343830     0.16100
C1484       C  0.41613153  0.12412263  0.20826594     0.25500
C1485       C  0.40899246  0.13711246  0.20200267    -0.40900
C1486       C  0.39854021  0.14536994  0.21108719     0.32500
C1487       C  0.40070510  0.12418367  0.24877837     0.01200
F1488       F  0.42047021  0.10739588  0.22930146    -0.13200
F1489       F  0.39097970  0.15760995  0.20529734    -0.13700
C1490       C  0.38632788  0.11901550  0.25374599     0.16100
C1491       C  0.38392360  0.11536164  0.26914835     0.25500
C1492       C  0.39584548  0.11700414  0.27992599    -0.40800
C1493       C  0.41030969  0.12205065  0.27484018     0.32400
C1494       C  0.41270356  0.12557672  0.25939093     0.14200
F1495       F  0.37465673  0.11732611  0.24360700    -0.13200
F1496       F  0.42200394  0.12413648  0.28486606    -0.13700
F1497       F  0.37000935  0.10986240  0.27339330    -0.16000
F1498       F  0.42664129  0.13077908  0.25483576    -0.14500
F1499       F  0.38579745  0.14934866  0.23484436    -0.14500
F1500       F  0.42636355  0.11592651  0.19995694    -0.15900
C1501       C  0.08781246  0.39243701  0.06995966     0.14100
C1502       C  0.09123609  0.39791633  0.05525211     0.01100
C1503       C  0.10575836  0.40417029  0.05233988     0.16100
C1504       C  0.11675582  0.40488204  0.06396584     0.25500
C1505       C  0.11342540  0.39929867  0.07875468    -0.40900
C1506       C  0.09877237  0.39312689  0.08162151     0.32500
C1507       C  0.07941881  0.39761932  0.04313250     0.01200
F1508       F  0.10929198  0.40957154  0.03819120    -0.13200
F1509       F  0.09507831  0.38745186  0.09560773    -0.13700
C1510       C  0.07338234  0.41134629  0.03754602     0.16100
C1511       C  0.06174117  0.41120114  0.02657444     0.25500
C1512       C  0.05591244  0.39723387  0.02084213    -0.40800
C1513       C  0.06224137  0.38345391  0.02634308     0.32400
C1514       C  0.07383996  0.38368074  0.03742241     0.14200
F1515       F  0.07856164  0.42495134  0.04299374    -0.13200
F1516       F  0.05730571  0.36972184  0.02101207    -0.13700
F1517       F  0.05615788  0.42482542  0.02170467    -0.16000
F1518       F  0.07976166  0.37027251  0.04249335    -0.14500
F1519       F  0.07371782  0.38663414  0.07308162    -0.14500
F1520       F  0.13047974  0.41147981  0.06080900    -0.15900
C1521       C  0.12695355  0.38780960  0.25306487     0.14100
C1522       C  0.13598378  0.40037150  0.24882350     0.01100
C1523       C  0.14231242  0.40983233  0.26015153     0.16100
C1524       C  0.13975966  0.40667253  0.27563911     0.25500
C1525       C  0.13091073  0.39390563  0.27997274    -0.40900
C1526       C  0.12444917  0.38456279  0.26851826     0.32500
C1527       C  0.13967680  0.40291912  0.23259014     0.01200
F1528       F  0.15117384  0.42197329  0.25617260    -0.13200
F1529       F  0.11559804  0.37234121  0.27224557    -0.13700
C1530       C  0.12867292  0.40877617  0.22251082     0.16100
C1531       C  0.13212730  0.41057613  0.20696533     0.25500
C1532       C  0.14660478  0.40630049  0.20125663    -0.40800
C1533       C  0.15758057  0.40041154  0.21152992     0.32400
C1534       C  0.15414574  0.39885524  0.22705297     0.14200
F1535       F  0.11460792  0.41277708  0.22776543    -0.13200
F1536       F  0.17143605  0.39548436  0.20655872    -0.13700
F1537       F  0.12137618  0.41671065  0.19760223    -0.16000
F1538       F  0.16480513  0.39289783  0.23665646    -0.14500
F1539       F  0.12091634  0.37845088  0.24220839    -0.14500
F1540       F  0.14652177  0.41569214  0.28634621    -0.15900
C1541       C  0.29186497  0.40512433  0.09528974     0.14100
C1542       C  0.28344100  0.39767068  0.10677530     0.01100
C1543       C  0.29087139  0.38766585  0.11685559     0.16100
C1544       C  0.30656119  0.38508636  0.11548804     0.25500
C1545       C  0.31510311  0.39265340  0.10412665    -0.40900
C1546       C  0.30766303  0.40273598  0.09405020     0.32500
C1547       C  0.26690525  0.40036918  0.10854974     0.01200
F1548       F  0.28287299  0.38038268  0.12803368    -0.13200
F1549       F  0.31562170  0.40999219  0.08283161    -0.13700
C1550       C  0.25644609  0.39387070  0.09825868     0.16100
C1551       C  0.24069523  0.39500692  0.10094675     0.25500
C1552       C  0.23515126  0.40291422  0.11391041    -0.40800
C1553       C  0.24581848  0.41000318  0.12380393     0.32400
C1554       C  0.26151949  0.40856049  0.12122115     0.14200
F1555       F  0.26152782  0.38585255  0.08595411    -0.13200
F1556       F  0.24117861  0.41847792  0.13595638    -0.13700
F1557       F  0.23101715  0.38772878  0.09121130    -0.16000
F1558       F  0.27153716  0.41505880  0.13119940    -0.14500
F1559       F  0.28480766  0.41482256  0.08544133    -0.14500
F1560       F  0.31348480  0.37555718  0.12559702    -0.15900
C1561       C  0.93157809  0.46630736  0.43892637     0.14100
C1562       C  0.91732911  0.46121519  0.43352391     0.01100
C1563       C  0.90392807  0.46834102  0.43869661     0.16100
C1564       C  0.90473067  0.48030247  0.44930585     0.25500
C1565       C  0.91903567  0.48544174  0.45489483    -0.40900
C1566       C  0.93246520  0.47831063  0.44946153     0.32500
C1567       C  0.91653222  0.44840780  0.42251736     0.01200
F1568       F  0.89001983  0.46351908  0.43365646    -0.13200
F1569       F  0.94651918  0.48282578  0.45436056    -0.13700
C1570       C  0.92157537  0.43381742  0.42681511     0.16100
C1571       C  0.92154092  0.42182254  0.41623548     0.25500
C1572       C  0.91642340  0.42421529  0.40111683    -0.40800
C1573       C  0.91104656  0.43882476  0.39696840     0.32400
C1574       C  0.91112869  0.45079957  0.40758391     0.14200
F1575       F  0.92655595  0.43120556  0.44130984    -0.13200
F1576       F  0.90541238  0.44152030  0.38274289    -0.13700
F1577       F  0.92698465  0.40801940  0.42071871    -0.16000
F1578       F  0.90619489  0.46483581  0.40320061    -0.14500
F1579       F  0.94469160  0.45971920  0.43383562    -0.14500
F1580       F  0.89144700  0.48679463  0.45405756    -0.15900
C1581       C  0.60365534  0.06533925  0.41160461     0.14100
C1582       C  0.58903916  0.07186155  0.41047344     0.01100
C1583       C  0.58449348  0.07842825  0.39653630     0.16100
C1584       C  0.59458797  0.07900464  0.38407757     0.25500
C1585       C  0.60951881  0.07298733  0.38530415    -0.40900
C1586       C  0.61376625  0.06581630  0.39915480     0.32500
C1587       C  0.57867066  0.07224329  0.42393464     0.01200
F1588       F  0.57025172  0.08443664  0.39504716    -0.13200
F1589       F  0.62769722  0.05916351  0.40071585    -0.13700
C1590       C  0.57428053  0.08628988  0.43032706     0.16100
C1591       C  0.56430882  0.08679209  0.44287761     0.25500
C1592       C  0.55844780  0.07318257  0.44934065    -0.40800
C1593       C  0.56303487  0.05908138  0.44291308     0.32400
C1594       C  0.57306394  0.05865382  0.43038892     0.14200
F1595       F  0.57981404  0.09958028  0.42447596    -0.13200
F1596       F  0.55772704  0.04562769  0.44858088    -0.13700
F1597       F  0.56039320  0.10067231  0.44860114    -0.16000
F1598       F  0.57705407  0.04493421  0.42432955    -0.14500
F1599       F  0.60831789  0.05889082  0.42495052    -0.14500
F1600       F  0.58985204  0.08604629  0.37108798    -0.15900
C1601       C  0.58434799  0.44555347  0.10080521     0.14100
C1602       C  0.58846146  0.45978073  0.09469409     0.01100
C1603       C  0.60350399  0.46228940  0.08970755     0.16100
C1604       C  0.61435254  0.45060500  0.09063911     0.25500
C1605       C  0.61029454  0.43619260  0.09665384    -0.40900
C1606       C  0.59516130  0.43384576  0.10182402     0.32500
C1607       C  0.57693202  0.47190933  0.09309951     0.01200
F1608       F  0.60760657  0.47603487  0.08374862    -0.13200
F1609       F  0.59084515  0.42035336  0.10817573    -0.13700
C1610       C  0.57431501  0.48220150  0.10510565     0.16100
C1611       C  0.56340186  0.49376275  0.10352436     0.25500
C1612       C  0.55490000  0.49517599  0.08984861    -0.40800
C1613       C  0.55768908  0.48478804  0.07780448     0.32400
C1614       C  0.56859718  0.47325073  0.07946552     0.14200
F1615       F  0.58238710  0.48105788  0.11834364    -0.13200
F1616       F  0.54969149  0.48556651  0.06449588    -0.13700
F1617       F  0.56136175  0.50368409  0.11530907    -0.16000
F1618       F  0.57099307  0.46328711  0.06778346    -0.14500
F1619       F  0.56981420  0.44300609  0.10573199    -0.14500
F1620       F  0.62864659  0.45329464  0.08515200    -0.15900
C1621       C  0.58481354  0.07800840  0.02862816     0.14100
C1622       C  0.59768699  0.08677962  0.03268191     0.01100
C1623       C  0.61154198  0.08442854  0.02486084     0.16100
C1624       C  0.61260721  0.07329198  0.01341062     0.25500
C1625       C  0.59982101  0.06414130  0.00958353    -0.40900
C1626       C  0.58584906  0.06679077  0.01724654     0.32500
C1627       C  0.59683389  0.09795116  0.04545217     0.01200
F1628       F  0.62423036  0.09260317  0.02864826    -0.13200
F1629       F  0.57319995  0.05833404  0.01401667    -0.13700
C1630       C  0.59236382  0.09314405  0.06014372     0.16100
C1631       C  0.59204138  0.10347975  0.07236144     0.25500
C1632       C  0.59643451  0.11884366  0.07022274    -0.40800
C1633       C  0.60068847  0.12368239  0.05539832     0.32400
C1634       C  0.60082909  0.11334371  0.04315540     0.14200
F1635       F  0.58867944  0.07828710  0.06277075    -0.13200
F1636       F  0.60527734  0.13826995  0.05275228    -0.13700
F1637       F  0.58725467  0.09840746  0.08625167    -0.16000
F1638       F  0.60491906  0.11837738  0.02901922    -0.14500
F1639       F  0.57118127  0.08030410  0.03573917    -0.14500
F1640       F  0.62625268  0.07144860  0.00618924    -0.15900
C1641       C  0.61848936  0.14133405  0.22069227     0.14100
C1642       C  0.62710994  0.12794174  0.22258101     0.01100
C1643       C  0.63247339  0.12017003  0.20957882     0.16100
C1644       C  0.62926786  0.12568927  0.19488106     0.25500
C1645       C  0.62058849  0.13909275  0.19292216    -0.40900
C1646       C  0.61524067  0.14686770  0.20600458     0.32500
C1647       C  0.63081728  0.12225082  0.23811426     0.01200
F1648       F  0.64117096  0.10742812  0.21115070    -0.13200
F1649       F  0.60650729  0.15960139  0.20460839    -0.13700
C1650       C  0.62506914  0.10812852  0.24323079     0.16100
C1651       C  0.62878249  0.10268929  0.25785848     0.25500
C1652       C  0.63847967  0.11120771  0.26751035    -0.40800
C1653       C  0.64424442  0.12533602  0.26231938     0.32400
C1654       C  0.64035477  0.13084267  0.24779938     0.14200
F1655       F  0.61580738  0.09964711  0.23405503    -0.13200
F1656       F  0.65343223  0.13398497  0.27141275    -0.13700
F1657       F  0.62332149  0.08886775  0.26237393    -0.16000
F1658       F  0.64611904  0.14447422  0.24306534    -0.14500
F1659       F  0.61301973  0.14892303  0.23310441    -0.14500
F1660       F  0.63513614  0.11820216  0.18259895    -0.15900
C1661       C  0.62259175  0.25599901  0.09618208     0.14100
C1662       C  0.62098170  0.26668325  0.10805916     0.01100
C1663       C  0.61521703  0.26191742  0.12227084     0.16100
C1664       C  0.61139332  0.24660035  0.12472046     0.25500
C1665       C  0.61342477  0.23569526  0.11301411    -0.40900
C1666       C  0.61889555  0.24060811  0.09862709     0.32500
C1667       C  0.62613156  0.28263668  0.10597949     0.01200
F1668       F  0.61335181  0.27214644  0.13382023    -0.13200
F1669       F  0.62140111  0.23046350  0.08713908    -0.13700
C1670       C  0.61825943  0.29258080  0.09615905     0.16100
C1671       C  0.62315631  0.30774450  0.09444855     0.25500
C1672       C  0.63609218  0.31313872  0.10247827    -0.40800
C1673       C  0.64391940  0.30306908  0.11231164     0.32400
C1674       C  0.63896594  0.28798150  0.11403139     0.14200
F1675       F  0.60572037  0.28763697  0.08839315    -0.13200
F1676       F  0.65609802  0.30790500  0.12068108    -0.13700
F1677       F  0.61542568  0.31701965  0.08470306    -0.16000
F1678       F  0.64675219  0.27851236  0.12355456    -0.14500
F1679       F  0.62834531  0.26038098  0.08241165    -0.14500
F1680       F  0.60554591  0.24251368  0.13853347    -0.15900
C1681       C  0.93337232  0.08226428  0.41583637     0.14100
C1682       C  0.94755955  0.08614511  0.40924563     0.01100
C1683       C  0.94916559  0.10039796  0.40202735     0.16100
C1684       C  0.93682314  0.11053918  0.40122865     0.25500
C1685       C  0.92251053  0.10664493  0.40761891    -0.40900
C1686       C  0.92093815  0.09238192  0.41497299     0.32500
C1687       C  0.96063994  0.07527972  0.40945634     0.01200
F1688       F  0.96278177  0.10451791  0.39573163    -0.13200
F1689       F  0.90745083  0.08831556  0.42156717    -0.13700
C1690       C  0.96662493  0.06961337  0.39564985     0.16100
C1691       C  0.97925559  0.05976835  0.39563760     0.25500
C1692       C  0.98627610  0.05531812  0.40950893    -0.40800
C1693       C  0.98018695  0.06107209  0.42337054     0.32400
C1694       C  0.96749724  0.07089142  0.42331347     0.14200
F1695       F  0.96003785  0.07345780  0.38210637    -0.13200
F1696       F  0.98649412  0.05728155  0.43705638    -0.13700
F1697       F  0.98442144  0.05446718  0.38197019    -0.16000
F1698       F  0.96206748  0.07635777  0.43681690    -0.14500
F1699       F  0.93147426  0.06854198  0.42284641    -0.14500
F1700       F  0.93880060  0.12396231  0.39369487    -0.15900
C1701       C  0.90043109  0.24507280  0.38744386     0.14100
C1702       C  0.88875601  0.25606679  0.38812611     0.01100
C1703       C  0.87388702  0.25143611  0.39223701     0.16100
C1704       C  0.87064702  0.23599441  0.39502617     0.25500
C1705       C  0.88217999  0.22483095  0.39354352    -0.40900
C1706       C  0.89718028  0.22963009  0.38995663     0.32500
C1707       C  0.89196946  0.27210575  0.38355566     0.01200
F1708       F  0.86234310  0.26177706  0.39297802    -0.13200
F1709       F  0.90864846  0.21936903  0.38809421    -0.13700
C1710       C  0.89839326  0.27517845  0.36910969     0.16100
C1711       C  0.90159188  0.29017208  0.36463220     0.25500
C1712       C  0.89816759  0.30251149  0.37439327    -0.40800
C1713       C  0.89163710  0.29944129  0.38884385     0.32400
C1714       C  0.88863619  0.28437557  0.39339966     0.14200
F1715       F  0.90139030  0.26361261  0.35918044    -0.13200
F1716       F  0.88775139  0.31100655  0.39844135    -0.13700
F1717       F  0.90837155  0.29252065  0.35083871    -0.16000
F1718       F  0.88261153  0.28177428  0.40750074    -0.14500
F1719       F  0.91502002  0.24928027  0.38403810    -0.14500
F1720       F  0.85619364  0.23202105  0.39916479    -0.15900
C1721       C  0.78010892  0.12954277  0.35959236     0.14100
C1722       C  0.77267631  0.11785771  0.36779811     0.01100
C1723       C  0.77989470  0.11160758  0.38074365     0.16100
C1724       C  0.79422242  0.11702297  0.38549024     0.25500
C1725       C  0.80162052  0.12880602  0.37737333    -0.40900
C1726       C  0.79442274  0.13500108  0.36435694     0.32500
C1727       C  0.75721194  0.11250005  0.36316760     0.01200
F1728       F  0.77307355  0.10016873  0.38876059    -0.13200
F1729       F  0.80137405  0.14613032  0.35602703    -0.13700
C1730       C  0.75460235  0.10657945  0.34842086     0.16100
C1731       C  0.73991838  0.10179535  0.34406555     0.25500
C1732       C  0.72757383  0.10278782  0.35440822    -0.40800
C1733       C  0.73026585  0.10855568  0.36921991     0.32400
C1734       C  0.74491438  0.11342553  0.37351338     0.14200
F1735       F  0.76632753  0.10524386  0.33829273    -0.13200
F1736       F  0.71860527  0.11014021  0.37937294    -0.13700
F1737       F  0.73785589  0.09591095  0.32981932    -0.16000
F1738       F  0.74699774  0.11952921  0.38766445    -0.14500
F1739       F  0.77336667  0.13588470  0.34711522    -0.14500
F1740       F  0.80063630  0.11104450  0.39830952    -0.15900
C1741       C  0.96541816  0.38801844  0.03226625     0.14100
C1742       C  0.96559166  0.39964675  0.04332579     0.01100
C1743       C  0.97730326  0.41062471  0.04314542     0.16100
C1744       C  0.98868250  0.41011123  0.03190367     0.25500
C1745       C  0.98857483  0.39849277  0.02073308    -0.40900
C1746       C  0.97688631  0.38737112  0.02108322     0.32500
C1747       C  0.95371907  0.40022937  0.05528482     0.01200
F1748       F  0.97771441  0.42181193  0.05392378    -0.13200
F1749       F  0.97634942  0.37609841  0.01040086    -0.13700
C1750       C  0.95637467  0.39342162  0.06955310     0.16100
C1751       C  0.94536391  0.39433248  0.08113165     0.25500
C1752       C  0.93149358  0.40212241  0.07860334    -0.40800
C1753       C  0.92886043  0.40888043  0.06418890     0.32400
C1754       C  0.93991703  0.40792684  0.05262581     0.14200
F1755       F  0.96965143  0.38583959  0.07222620    -0.13200
F1756       F  0.91581333  0.41680661  0.06140796    -0.13700
F1757       F  0.94813491  0.38721369  0.09465202    -0.16000
F1758       F  0.93726667  0.41468223  0.03888432    -0.14500
F1759       F  0.95413818  0.37730905  0.03233644    -0.14500
F1760       F  0.00002615  0.42075205  0.03218880    -0.15900
C1761       C  0.89052830  0.38696543  0.22574179     0.14100
C1762       C  0.90264621  0.39455547  0.23308099     0.01100
C1763       C  0.91255099  0.40386242  0.22446282     0.16100
C1764       C  0.91036090  0.40550610  0.20864534     0.25500
C1765       C  0.89810962  0.39800280  0.20132336    -0.40900
C1766       C  0.88830451  0.38861491  0.21002209     0.32500
C1767       C  0.90517233  0.39209624  0.24961900     0.01200
F1768       F  0.92441997  0.41119066  0.23134546    -0.13200
F1769       F  0.87673271  0.38071472  0.20326123    -0.13700
C1770       C  0.90849794  0.37737244  0.25495854     0.16100
C1771       C  0.90988896  0.37455566  0.27061301     0.25500
C1772       C  0.90783315  0.38642677  0.28133093    -0.40800
C1773       C  0.90478237  0.40130291  0.27590750     0.32400
C1774       C  0.90350884  0.40410128  0.26015621     0.14200
F1775       F  0.91040751  0.36566262  0.24492712    -0.13200
F1776       F  0.90238715  0.41303012  0.28579430    -0.13700
F1777       F  0.91353013  0.36020084  0.27518369    -0.16000
F1778       F  0.90007642  0.41840046  0.25521387    -0.14500
F1779       F  0.88076247  0.37798757  0.23387240    -0.14500
F1780       F  0.91993722  0.41473898  0.20059630    -0.15900
C1781       C  0.75475843  0.39013176  0.11824833     0.14100
C1782       C  0.76164996  0.40200062  0.10992790     0.01100
C1783       C  0.75260441  0.41148810  0.10070317     0.16100
C1784       C  0.73681376  0.40891157  0.09955503     0.25500
C1785       C  0.72989985  0.39679341  0.10765018    -0.40900
C1786       C  0.73901931  0.38752342  0.11712424     0.32500
C1787       C  0.77838208  0.40404622  0.11063710     0.01200
F1788       F  0.75914532  0.42296514  0.09251422    -0.13200
F1789       F  0.73267379  0.37610082  0.12553605    -0.13700
C1790       C  0.78798940  0.39363285  0.10310384     0.16100
C1791       C  0.80386525  0.39454631  0.10491583     0.25500
C1792       C  0.81029653  0.40574409  0.11451450    -0.40800
C1793       C  0.80067043  0.41642243  0.12173117     0.32400
C1794       C  0.78480307  0.41564915  0.11969635     0.14200
F1795       F  0.78191669  0.38233209  0.09432137    -0.13200
F1796       F  0.80664375  0.42755391  0.13079749    -0.13700
F1797       F  0.81286631  0.38395814  0.09800615    -0.16000
F1798       F  0.77566487  0.42586522  0.12698298    -0.14500
F1799       F  0.76333158  0.38108451  0.12750320    -0.14500
F1800       F  0.72842542  0.41785630  0.09004628    -0.15900
C1801       C  0.56937180  0.94065889  0.43446984     0.14100
C1802       C  0.57794718  0.95380391  0.43092472     0.01100
C1803       C  0.57460971  0.96754843  0.43853207     0.16100
C1804       C  0.56279556  0.96818777  0.44937915     0.25500
C1805       C  0.55407897  0.95503630  0.45290047    -0.40900
C1806       C  0.55760780  0.94123307  0.44534303     0.32500
C1807       C  0.59016140  0.95311620  0.41909480     0.01200
F1808       F  0.58299468  0.98031898  0.43565332    -0.13200
F1809       F  0.54950180  0.92828438  0.44821160    -0.13700
C1810       C  0.58933277  0.96227265  0.40588170     0.16100
C1811       C  0.60017570  0.96069375  0.39414909     0.25500
C1812       C  0.61210119  0.95000036  0.39546400    -0.40800
C1813       C  0.61318200  0.94118903  0.40892511     0.32400
C1814       C  0.60232498  0.94274362  0.42060428     0.14200
F1815       F  0.57773548  0.97242267  0.40412742    -0.13200
F1816       F  0.62435822  0.93055913  0.41054965    -0.13700
F1817       F  0.59908151  0.96971302  0.38155300    -0.16000
F1818       F  0.60362187  0.93400288  0.43338520    -0.14500
F1819       F  0.57217236  0.92727583  0.42711164    -0.14500
F1820       F  0.56013054  0.98165074  0.45663184    -0.15900
C1821       C  0.92375452  0.58613187  0.40402115     0.14100
C1822       C  0.91755227  0.58810049  0.41869736     0.01100
C1823       C  0.91100249  0.60215841  0.42270012     0.16100
C1824       C  0.91060993  0.61415110  0.41213862     0.25500
C1825       C  0.91678410  0.61226468  0.39734159    -0.40900
C1826       C  0.92339359  0.59809327  0.39341550     0.32500
C1827       C  0.91819647  0.57560400  0.42999858     0.01200
F1828       F  0.90511019  0.60429693  0.43693369    -0.13200
F1829       F  0.92986655  0.59586704  0.37945939    -0.13700
C1830       C  0.93226661  0.57130670  0.43635603     0.16100
C1831       C  0.93289849  0.55991863  0.44754278     0.25500
C1832       C  0.91939368  0.55253513  0.45254844    -0.40800
C1833       C  0.90530234  0.55674375  0.44586677     0.32400
C1834       C  0.90474149  0.56821479  0.43473401     0.14200
F1835       F  0.94538109  0.57845276  0.43198831    -0.13200
F1836       F  0.89202772  0.54977707  0.45002462    -0.13700
F1837       F  0.94674210  0.55641328  0.45366038    -0.16000
F1838       F  0.89105188  0.57208513  0.42848995    -0.14500
F1839       F  0.93008711  0.57256344  0.39995290    -0.14500
F1840       F  0.90380158  0.62743637  0.41631686    -0.15900
C1841       C  0.56886011  0.58183390  0.06901569     0.14100
C1842       C  0.57773272  0.58486109  0.08206880     0.01100
C1843       C  0.57573749  0.57596038  0.09525266     0.16100
C1844       C  0.56478035  0.56433145  0.09554755     0.25500
C1845       C  0.55553030  0.56143619  0.08262628    -0.40900
C1846       C  0.55780649  0.57020879  0.06927273     0.32500
C1847       C  0.58887282  0.59753341  0.08220737     0.01200
F1848       F  0.58447490  0.57854666  0.10786107    -0.13200
F1849       F  0.54900561  0.56792042  0.05665815    -0.13700
C1850       C  0.58591481  0.61065601  0.09093119     0.16100
C1851       C  0.59679142  0.62235720  0.09186819     0.25500
C1852       C  0.61085861  0.62111040  0.08405647    -0.40800
C1853       C  0.61366498  0.60795591  0.07513885     0.32400
C1854       C  0.60274475  0.59627505  0.07424912     0.14200
F1855       F  0.57248508  0.61205728  0.09864408    -0.13200
F1856       F  0.62683411  0.60645344  0.06702889    -0.13700
F1857       F  0.59371229  0.63463066  0.10085544    -0.16000
F1858       F  0.60581599  0.58358530  0.06584506    -0.14500
F1859       F  0.57062851  0.59042744  0.05618851    -0.14500
F1860       F  0.56335641  0.55581394  0.10847016    -0.15900
C1861       C  0.97219891  0.62859503  0.03798776     0.14100
C1862       C  0.96629943  0.61583652  0.04568559     0.01100
C1863       C  0.97180204  0.60121862  0.04210622     0.16100
C1864       C  0.98308559  0.59936550  0.03087096     0.25500
C1865       C  0.98896451  0.61216103  0.02294309    -0.40900
C1866       C  0.98336721  0.62682076  0.02671069     0.32500
C1867       C  0.95418154  0.61791786  0.05725018     0.01200
F1868       F  0.96637521  0.58876774  0.04965618    -0.13200
F1869       F  0.98852989  0.63953077  0.01941469    -0.13700
C1870       C  0.93924406  0.61275284  0.05431829     0.16100
C1871       C  0.92748966  0.61570289  0.06477981     0.25500
C1872       C  0.93057294  0.62373438  0.07841390    -0.40800
C1873       C  0.94562050  0.62873079  0.08138192     0.32400
C1874       C  0.95731067  0.62588143  0.07084869     0.14200
F1875       F  0.93600123  0.60515293  0.04114367    -0.13200
F1876       F  0.94893560  0.63684452  0.09422403    -0.13700
F1877       F  0.91317777  0.61045818  0.06169014    -0.16000
F1878       F  0.97170200  0.63097417  0.07385879    -0.14500
F1879       F  0.96689801  0.64281436  0.04122310    -0.14500
F1880       F  0.98831776  0.58506557  0.02792186    -0.15900
C1881       C  0.91754222  0.64964148  0.25119618     0.14100
C1882       C  0.90442502  0.64188797  0.24603518     0.01100
C1883       C  0.89344675  0.63686872  0.25667403     0.16100
C1884       C  0.89541793  0.63978844  0.27228079     0.25500
C1885       C  0.90825858  0.64801038  0.27739595    -0.40900
C1886       C  0.91936346  0.65283997  0.26679715     0.32500
C1887       C  0.90139961  0.64023030  0.22950536     0.01200
F1888       F  0.88065419  0.62943526  0.25185707    -0.13200
F1889       F  0.93194141  0.66064407  0.27158409    -0.13700
C1890       C  0.90992571  0.63009198  0.22044964     0.16100
C1891       C  0.90643533  0.62826516  0.20488824     0.25500
C1892       C  0.89442577  0.63667579  0.19817978    -0.40800
C1893       C  0.88619462  0.64708915  0.20730876     0.32400
C1894       C  0.88962291  0.64877496  0.22281450     0.14200
F1895       F  0.92136854  0.62172553  0.22676885    -0.13200
F1896       F  0.87508897  0.65602036  0.20119148    -0.13700
F1897       F  0.91448076  0.61793581  0.19655177    -0.16000
F1898       F  0.88153767  0.65893586  0.23133280    -0.14500
F1899       F  0.92826459  0.65458284  0.24106902    -0.14500
F1900       F  0.88443651  0.63524118  0.28231867    -0.15900
C1901       C  0.78804825  0.63960940  0.08917793     0.14100
C1902       C  0.77839336  0.64919087  0.09765265     0.01100
C1903       C  0.78405988  0.65676621  0.11062080     0.16100
C1904       C  0.79930650  0.65489203  0.11504807     0.25500
C1905       C  0.80913897  0.64543832  0.10648742    -0.40900
C1906       C  0.80334796  0.63776096  0.09352830     0.32500
C1907       C  0.76236941  0.65143428  0.09300317     0.01200
F1908       F  0.77479939  0.66605762  0.11893305    -0.13200
F1909       F  0.81235265  0.62814371  0.08532015    -0.13700
C1910       C  0.75089087  0.64177597  0.09868802     0.16100
C1911       C  0.73552467  0.64461646  0.09528660     0.25500
C1912       C  0.73142102  0.65721606  0.08610137    -0.40800
C1913       C  0.74307916  0.66662262  0.08008156     0.32400
C1914       C  0.75843302  0.66375779  0.08356152     0.14200
F1915       F  0.75456206  0.62986786  0.10794059    -0.13200
F1916       F  0.73965162  0.67856129  0.07078366    -0.13700
F1917       F  0.72468861  0.63548233  0.10167320    -0.16000
F1918       F  0.76948029  0.67316047  0.07794699    -0.14500
F1919       F  0.78261883  0.63203785  0.07672693    -0.14500
F1920       F  0.80453956  0.66268931  0.12744114    -0.15900
C1921       C  0.95037842  0.94375445  0.41452026     0.14100
C1922       C  0.95003083  0.95691736  0.40528705     0.01100
C1923       C  0.93753196  0.95912164  0.39539559     0.16100
C1924       C  0.92567668  0.94832271  0.39463514     0.25500
C1925       C  0.92609819  0.93501740  0.40371714    -0.40900
C1926       C  0.93855898  0.93290462  0.41373019     0.32500
C1927       C  0.96268106  0.96833531  0.40597170     0.01200
F1928       F  0.93675099  0.97182852  0.38651347    -0.13200
F1929       F  0.93919796  0.92045018  0.42297102    -0.13700
C1930       C  0.97126057  0.97188737  0.39281292     0.16100
C1931       C  0.98314436  0.98268253  0.39344713     0.25500
C1932       C  0.98675535  0.99018487  0.40731893    -0.40800
C1933       C  0.97809617  0.98654108  0.42048952     0.32400
C1934       C  0.96621683  0.97576803  0.41979370     0.14200
F1935       F  0.96829473  0.96467948  0.37935357    -0.13200
F1936       F  0.98087434  0.99359465  0.43406382    -0.13700
F1937       F  0.99120373  0.98560480  0.38046830    -0.16000
F1938       F  0.95790355  0.97283359  0.43260833    -0.14500
F1939       F  0.96233776  0.94126512  0.42412606    -0.14500
F1940       F  0.91405530  0.95068410  0.38460122    -0.15900
C1941       C  0.77918217  0.89440040  0.37783661     0.14100
C1942       C  0.77479131  0.90840800  0.37136688     0.01100
C1943       C  0.78609508  0.91935687  0.36792961     0.16100
C1944       C  0.80156187  0.91625918  0.37075245     0.25500
C1945       C  0.80598354  0.90217187  0.37713583    -0.40900
C1946       C  0.79458860  0.89133119  0.38076177     0.32500
C1947       C  0.75845701  0.91130707  0.36785020     0.01200
F1948       F  0.78214736  0.93306957  0.36184351    -0.13200
F1949       F  0.79827879  0.87779545  0.38736994    -0.13700
C1950       C  0.74729205  0.91012771  0.37939151     0.16100
C1951       C  0.73177748  0.91189472  0.37588345     0.25500
C1952       C  0.72713762  0.91508161  0.36077231    -0.40800
C1953       C  0.73837952  0.91652041  0.34928543     0.32400
C1954       C  0.75386876  0.91458694  0.35278959     0.14200
F1955       F  0.75143212  0.90726860  0.39410384    -0.13200
F1956       F  0.73447213  0.92011725  0.33468475    -0.13700
F1957       F  0.72129990  0.91003436  0.38722395    -0.16000
F1958       F  0.76437966  0.91559476  0.34136843    -0.14500
F1959       F  0.76854385  0.88350073  0.38100845    -0.14500
F1960       F  0.81221913  0.92684121  0.36673420    -0.15900
C1961       C  0.91027615  0.76243289  0.35902794     0.14100
C1962       C  0.90404649  0.76707152  0.37307684     0.01100
C1963       C  0.90063763  0.75599993  0.38421877     0.16100
C1964       C  0.90288738  0.74044028  0.38111635     0.25500
C1965       C  0.90873048  0.73568665  0.36680792    -0.40900
C1966       C  0.91273564  0.74697141  0.35596240     0.32500
C1967       C  0.90060812  0.78342915  0.37573866     0.01200
F1968       F  0.89454956  0.76021881  0.39789045    -0.13200
F1969       F  0.91928077  0.74317265  0.34239539    -0.13700
C1970       C  0.89024128  0.79102907  0.36612503     0.16100
C1971       C  0.88719238  0.80655448  0.36821481     0.25500
C1972       C  0.89430851  0.81480480  0.38014106    -0.40800
C1973       C  0.90477532  0.80716427  0.38972108     0.32400
C1974       C  0.90787510  0.79160639  0.38753415     0.14200
F1975       F  0.88293677  0.78333462  0.35474229    -0.13200
F1976       F  0.91172486  0.81460096  0.40146768    -0.13700
F1977       F  0.87752324  0.81354402  0.35828383    -0.16000
F1978       F  0.91811348  0.78455092  0.39682763    -0.14500
F1979       F  0.91402822  0.77295685  0.34822164    -0.14500
F1980       F  0.89871870  0.73009385  0.39191732    -0.15900
C1981       C  0.62166197  0.98269894  0.03121441     0.14100
C1982       C  0.60824829  0.97558326  0.03653713     0.01100
C1983       C  0.59411280  0.97958793  0.03009478     0.16100
C1984       C  0.59335035  0.99058208  0.01853754     0.25500
C1985       C  0.60679426  0.99776895  0.01307442    -0.40900
C1986       C  0.62097675  0.99367049  0.01960038     0.32500
C1987       C  0.60901460  0.96398965  0.04882722     0.01200
F1988       F  0.58102184  0.97261910  0.03481151    -0.13200
F1989       F  0.63423982  0.00024681  0.01482125    -0.13700
C1990       C  0.60103535  0.96615747  0.06263292     0.16100
C1991       C  0.60198490  0.95531180  0.07435441     0.25500
C1992       C  0.61098112  0.94211840  0.07247397    -0.40800
C1993       C  0.61887754  0.93994982  0.05856067     0.32400
C1994       C  0.61783945  0.95075551  0.04684344     0.14200
F1995       F  0.59247647  0.97890526  0.06483618    -0.13200
F1996       F  0.62797609  0.92758374  0.05639066    -0.13700
F1997       F  0.59381022  0.95757600  0.08737966    -0.16000
F1998       F  0.62537258  0.94823473  0.03346957    -0.14500
F1999       F  0.63544978  0.97916194  0.03744407    -0.14500
F2000       F  0.57938049  0.99405799  0.01269143    -0.15900
C2001       C  0.61574822  0.89980303  0.22198489     0.14100
C2002       C  0.62442138  0.91245188  0.22682495     0.01100
C2003       C  0.63001823  0.92277002  0.21583215     0.16100
C2004       C  0.62728880  0.92032207  0.20021657     0.25500
C2005       C  0.61887804  0.90746895  0.19528044    -0.40900
C2006       C  0.61295625  0.89734928  0.20638349     0.32500
C2007       C  0.62813965  0.91461760  0.24326531     0.01200
F2008       F  0.63868274  0.93491826  0.22020168    -0.13200
F2009       F  0.60428699  0.88514543  0.20218825    -0.13700
C2010       C  0.63696616  0.90371504  0.25105772     0.16100
C2011       C  0.64109566  0.90601710  0.26637662     0.25500
C2012       C  0.63642617  0.91928561  0.27426116    -0.40800
C2013       C  0.62741736  0.93010819  0.26645279     0.32400
C2014       C  0.62333671  0.92778835  0.25110180     0.14200
F2015       F  0.64188962  0.89095944  0.24370230    -0.13200
F2016       F  0.62299668  0.94321720  0.27347037    -0.13700
F2017       F  0.64947820  0.89509931  0.27352260    -0.16000
F2018       F  0.61467226  0.93842070  0.24385297    -0.14500
F2019       F  0.60993230  0.88983597  0.23240349    -0.14500
F2020       F  0.63354925  0.93015038  0.18994115    -0.15900
C2021       C  0.63627214  0.80278216  0.08831546     0.14100
C2022       C  0.62883058  0.79101658  0.09638600     0.01100
C2023       C  0.61839374  0.79480015  0.10802589     0.16100
C2024       C  0.61581086  0.81009503  0.11186847     0.25500
C2025       C  0.62360018  0.82187079  0.10410828    -0.40900
C2026       C  0.63371130  0.81807605  0.09215050     0.32500
C2027       C  0.63292190  0.77485468  0.09352596     0.01200
F2028       F  0.61113139  0.78365915  0.11607458    -0.13200
F2029       F  0.64168979  0.82910377  0.08464112    -0.13700
C2030       C  0.64810750  0.77010043  0.09555271     0.16100
C2031       C  0.65212423  0.75480585  0.09356745     0.25500
C2032       C  0.64102554  0.74383434  0.08934381    -0.40800
C2033       C  0.62577965  0.74871303  0.08711649     0.32400
C2034       C  0.62177456  0.76406000  0.08929042     0.14200
F2035       F  0.65903257  0.78023966  0.10001796    -0.13200
F2036       F  0.61473497  0.73877083  0.08255937    -0.13700
F2037       F  0.66682602  0.75077788  0.09644738    -0.16000
F2038       F  0.60702657  0.76842207  0.08708963    -0.14500
F2039       F  0.64624926  0.79941902  0.07687215    -0.14500
F2040       F  0.60563445  0.81337809  0.12315025    -0.15900
C2041       C  0.12541985  0.58593836  0.41452533     0.14100
C2042       C  0.11610066  0.58847839  0.42737673     0.01100
C2043       C  0.10797037  0.60225322  0.42855931     0.16100
C2044       C  0.10926510  0.61341654  0.41710227     0.25500
C2045       C  0.11857324  0.61087953  0.40416746    -0.40900
C2046       C  0.12660510  0.59698208  0.40299816     0.32500
C2047       C  0.11534067  0.57689382  0.43972828     0.01200
F2048       F  0.09897896  0.60497627  0.44094589    -0.13200
F2049       F  0.13603323  0.59425233  0.39094363    -0.13700
C2050       C  0.12824749  0.57413500  0.44885066     0.16100
C2051       C  0.12798900  0.56267155  0.46000110     0.25500
C2052       C  0.11479828  0.55355483  0.46218651    -0.40800
C2053       C  0.10169879  0.55665556  0.45325040     0.32400
C2054       C  0.10199354  0.56823579  0.44213532     0.14200
F2055       F  0.14115900  0.58260678  0.44694102    -0.13200
F2056       F  0.08873351  0.54822365  0.45491069    -0.13700
F2057       F  0.14069731  0.56059995  0.46870417    -0.16000
F2058       F  0.08939486  0.57069541  0.43337888    -0.14500
F2059       F  0.13339637  0.57270558  0.41315863    -0.14500
F2060       F  0.10117049  0.62656266  0.41852004    -0.15900
C2061       C  0.43454707  0.95807167  0.42279276     0.14100
C2062       C  0.44851463  0.95052472  0.42031525     0.01100
C2063       C  0.45057577  0.94216427  0.40674673     0.16100
C2064       C  0.43900475  0.94162490  0.39565499     0.25500
C2065       C  0.42504839  0.94934594  0.39797623    -0.40900
C2066       C  0.42287042  0.95741201  0.41177991     0.32500
C2067       C  0.46108231  0.95160020  0.43170813     0.01200
F2068       F  0.46395070  0.93473184  0.40412044    -0.13200
F2069       F  0.40964580  0.96509092  0.41442591    -0.13700
C2070       C  0.46578148  0.93863797  0.43989501     0.16100
C2071       C  0.47783010  0.93959937  0.45046104     0.25500
C2072       C  0.48551534  0.95360850  0.45303317    -0.40800
C2073       C  0.48074836  0.96657225  0.44468173     0.32400
C2074       C  0.46865314  0.96555291  0.43417973     0.14200
F2075       F  0.45851590  0.92505575  0.43780598    -0.13200
F2076       F  0.48787189  0.98026267  0.44649168    -0.13700
F2077       F  0.48176713  0.92680600  0.45830477    -0.16000
F2078       F  0.46449372  0.97817321  0.42616936    -0.14500
F2079       F  0.43222608  0.96607047  0.43591658    -0.14500
F2080       F  0.44137984  0.93327830  0.38276634    -0.15900
C2081       C  0.45633605  0.60889774  0.08877768     0.14100
C2082       C  0.45428340  0.59650174  0.07875283     0.01100
C2083       C  0.44154803  0.59627484  0.06892588     0.16100
C2084       C  0.43073088  0.60805148  0.06952654     0.25500
C2085       C  0.43258618  0.62025759  0.07987842    -0.40900
C2086       C  0.44561130  0.62067514  0.08933315     0.32500
C2087       C  0.46521101  0.58363221  0.07914193     0.01200
F2088       F  0.43935823  0.58443700  0.05909816    -0.13200
F2089       F  0.44764150  0.63212110  0.09964230    -0.13700
C2090       C  0.46745129  0.57558003  0.09285504     0.16100
C2091       C  0.47870131  0.56434038  0.09385720     0.25500
C2092       C  0.48794224  0.56085883  0.08109641    -0.40800
C2093       C  0.48521700  0.56850085  0.06713974     0.32400
C2094       C  0.47395508  0.57982126  0.06620087     0.14200
F2095       F  0.45871794  0.57866831  0.10534883    -0.13200
F2096       F  0.49376236  0.56541843  0.05452113    -0.13700
F2097       F  0.48043343  0.55680881  0.10733977    -0.16000
F2098       F  0.47198291  0.58745892  0.05281611    -0.14500
F2099       F  0.46870655  0.60949333  0.09818602    -0.14500
F2100       F  0.41850954  0.60758402  0.05992897    -0.15900
C2101       C  0.42817137  0.97749053  0.03892313     0.14100
C2102       C  0.44188953  0.97085921  0.04399521     0.01100
C2103       C  0.45577284  0.97559972  0.03731947     0.16100
C2104       C  0.45593273  0.98683391  0.02584883     0.25500
C2105       C  0.44216679  0.99361051  0.02082341    -0.40900
C2106       C  0.42828331  0.98875370  0.02757843     0.32500
C2107       C  0.44161412  0.95927842  0.05647954     0.01200
F2108       F  0.46924643  0.96958231  0.04214817    -0.13200
F2109       F  0.41468928  0.99495753  0.02335809    -0.13700
C2110       C  0.44781550  0.94463310  0.05428306     0.16100
C2111       C  0.44724478  0.93369910  0.06602582     0.25500
C2112       C  0.44026947  0.93711154  0.08021577    -0.40800
C2113       C  0.43392715  0.95180708  0.08225118     0.32400
C2114       C  0.43475223  0.96275481  0.07060627     0.14200
F2115       F  0.45418236  0.94079734  0.04062563    -0.13200
F2116       F  0.42645224  0.95559115  0.09532846    -0.13700
F2117       F  0.45376744  0.91987374  0.06349316    -0.16000
F2118       F  0.42885325  0.97687162  0.07318413    -0.14500
F2119       F  0.41453826  0.97293089  0.04487908    -0.14500
F2120       F  0.46959559  0.99102644  0.01970792    -0.15900
C2121       C  0.39083105  0.91859917  0.25435109     0.14100
C2122       C  0.40249883  0.92660246  0.24667821     0.01100
C2123       C  0.40965785  0.93901482  0.25401823     0.16100
C2124       C  0.40538920  0.94317649  0.26891839     0.25500
C2125       C  0.39378280  0.93508751  0.27663757    -0.40900
C2126       C  0.38647645  0.92281873  0.26916519     0.32500
C2127       C  0.40731540  0.92174960  0.23114119     0.01200
F2128       F  0.42097591  0.94692066  0.24685262    -0.13200
F2129       F  0.37544076  0.91456236  0.27637506    -0.13700
C2130       C  0.40586872  0.93166668  0.21859645     0.16100
C2131       C  0.40984448  0.92679559  0.20383603     0.25500
C2132       C  0.41551581  0.91190075  0.20134739    -0.40800
C2133       C  0.41719841  0.90211371  0.21407798     0.32400
C2134       C  0.41307086  0.90697776  0.22876428     0.14200
F2135       F  0.40014492  0.94594584  0.22057766    -0.13200
F2136       F  0.42318409  0.88790965  0.21248499    -0.13700
F2137       F  0.40758183  0.93653945  0.19197498    -0.16000
F2138       F  0.41489337  0.89728501  0.24076707    -0.14500
F2139       F  0.38359501  0.90669696  0.24743706    -0.14500
F2140       F  0.41238553  0.95529660  0.27568471    -0.15900
C2141       C  0.41539797  0.79747354  0.10182154     0.14100
C2142       C  0.41738885  0.78619502  0.11310506     0.01100
C2143       C  0.42345074  0.79047833  0.12740381     0.16100
C2144       C  0.42718376  0.80577849  0.13044520     0.25500
C2145       C  0.42498003  0.81715040  0.11921538    -0.40900
C2146       C  0.41917693  0.81274943  0.10480701     0.32500
C2147       C  0.41278793  0.77008703  0.11000980     0.01200
F2148       F  0.42591621  0.77979541  0.13840152    -0.13200
F2149       F  0.41644335  0.82329817  0.09376485    -0.13700
C2150       C  0.41880428  0.76215991  0.09733941     0.16100
C2151       C  0.41402160  0.74721024  0.09408574     0.25500
C2152       C  0.40306454  0.73992489  0.10338366    -0.40800
C2153       C  0.39711676  0.74778511  0.11610129     0.32400
C2154       C  0.40198026  0.76269379  0.11942828     0.14200
F2155       F  0.42941519  0.76887405  0.08815687    -0.13200
F2156       F  0.38683436  0.74089735  0.12552328    -0.13700
F2157       F  0.41978762  0.74000691  0.08157929    -0.16000
F2158       F  0.39588464  0.77002581  0.13169829    -0.14500
F2159       F  0.40922930  0.79378820  0.08802789    -0.14500
F2160       F  0.43319558  0.80937923  0.14432596    -0.15900
C2161       C  0.08582881  0.93977467  0.40053212     0.14100
C2162       C  0.08781027  0.95259478  0.41008745     0.01100
C2163       C  0.10072183  0.95320186  0.41971315     0.16100
C2164       C  0.11151912  0.94138290  0.41960235     0.25500
C2165       C  0.10974678  0.92873699  0.40975127    -0.40900
C2166       C  0.09668061  0.92799697  0.40033597     0.32500
C2167       C  0.07645883  0.96530530  0.40996138     0.01200
F2168       F  0.10311796  0.96545852  0.42896286    -0.13200
F2169       F  0.09466947  0.91618410  0.39045466    -0.13700
C2170       C  0.06941872  0.97013442  0.42360603     0.16100
C2171       C  0.05861251  0.98193809  0.42349025     0.25500
C2172       C  0.05437707  0.98912912  0.40964509    -0.40800
C2173       C  0.06159654  0.98434700  0.39598750     0.32400
C2174       C  0.07254226  0.97265071  0.39618145     0.14200
F2175       F  0.07272688  0.96315069  0.43708478    -0.13200
F2176       F  0.05818203  0.99100189  0.38237046    -0.13700
F2177       F  0.05218818  0.98613664  0.43700933    -0.16000
F2178       F  0.07951235  0.96865086  0.38286872    -0.14500
F2179       F  0.07332586  0.93863014  0.39136117    -0.14500
F2180       F  0.12367749  0.94228297  0.42925253    -0.15900
C2181       C  0.24477412  0.93148318  0.37433027     0.14100
C2182       C  0.25804702  0.92253968  0.37518236     0.01100
C2183       C  0.25692747  0.90729884  0.38003499     0.16100
C2184       C  0.24272018  0.90099905  0.38392964     0.25500
C2185       C  0.22929284  0.90983961  0.38298152    -0.40900
C2186       C  0.23048986  0.92519158  0.37814513     0.32500
C2187       C  0.27306672  0.92869895  0.37034850     0.01200
F2188       F  0.26968158  0.89851055  0.38101969    -0.13200
F2189       F  0.21780457  0.93396681  0.37651061    -0.13700
C2190       C  0.28164058  0.93816111  0.38010485     0.16100
C2191       C  0.29660493  0.94246970  0.37614258     0.25500
C2192       C  0.30325892  0.93731788  0.36234689    -0.40800
C2193       C  0.29425476  0.92838066  0.35230387     0.32400
C2194       C  0.27933652  0.92414058  0.35630590     0.14200
F2195       F  0.27567349  0.94284820  0.39367284    -0.13200
F2196       F  0.30003130  0.92302687  0.33891888    -0.13700
F2197       F  0.30453059  0.95170915  0.38581026    -0.16000
F2198       F  0.27107963  0.91520481  0.34661095    -0.14500
F2199       F  0.24561331  0.94617810  0.36940845    -0.14500
F2200       F  0.24220369  0.88632226  0.38892504    -0.15900
C2201       C  0.13595983  0.78847710  0.37820074     0.14100
C2202       C  0.14808008  0.77816666  0.38053529     0.01100
C2203       C  0.16195209  0.78378175  0.38652189     0.16100
C2204       C  0.16377668  0.79939635  0.38974283     0.25500
C2205       C  0.15182702  0.80984854  0.38687056    -0.40900
C2206       C  0.13781480  0.80411259  0.38124376     0.32500
C2207       C  0.14626839  0.76168924  0.37639784     0.01200
F2208       F  0.17393380  0.77421003  0.38888113    -0.13200
F2209       F  0.12600681  0.81365940  0.37812003    -0.13700
C2210       C  0.14158062  0.75748338  0.36156013     0.16100
C2211       C  0.13917037  0.74210170  0.35774351     0.25500
C2212       C  0.14158699  0.73045496  0.36863515    -0.40800
C2213       C  0.14677247  0.73466307  0.38335387     0.32400
C2214       C  0.14899103  0.75008512  0.38720611     0.14200
F2215       F  0.13939562  0.76832478  0.35065975    -0.13200
F2216       F  0.14999404  0.72385865  0.39401313    -0.13700
F2217       F  0.13401643  0.73873545  0.34347146    -0.16000
F2218       F  0.15350176  0.75367744  0.40164842    -0.14500
F2219       F  0.12223548  0.78338504  0.37293368    -0.14500
F2220       F  0.17724009  0.80420591  0.39585642    -0.15900
C2221       C  0.07389459  0.59336602  0.04006764     0.14100
C2222       C  0.07843784  0.60723073  0.04678610     0.01100
C2223       C  0.07095352  0.62077071  0.04268304     0.16100
C2224       C  0.05936196  0.62058584  0.03170539     0.25500
C2225       C  0.05503433  0.60679024  0.02450013    -0.40900
C2226       C  0.06229496  0.59311853  0.02899650     0.32500
C2227       C  0.09109712  0.60777841  0.05797563     0.01200
F2228       F  0.07484764  0.63422769  0.04941643    -0.13200
F2229       F  0.05849405  0.57955397  0.02244697    -0.13700
C2230       C  0.10436307  0.61627424  0.05470612     0.16100
C2231       C  0.11589307  0.61784992  0.06569294     0.25500
C2232       C  0.11430720  0.61096541  0.08018590    -0.40800
C2233       C  0.10117273  0.60209268  0.08324984     0.32400
C2234       C  0.08966838  0.60052221  0.07222556     0.14200
F2235       F  0.10603346  0.62321915  0.04089414    -0.13200
F2236       F  0.09949266  0.59481674  0.09687538    -0.13700
F2237       F  0.12825904  0.62666536  0.06234036    -0.16000
F2238       F  0.07690309  0.59230751  0.07563191    -0.14500
F2239       F  0.08100223  0.58013370  0.04392418    -0.14500
F2240       F  0.05236948  0.63398455  0.02822409    -0.15900
C2241       C  0.25650342  0.63026907  0.09879985     0.14100
C2242       C  0.26441628  0.64195453  0.10650199     0.01100
C2243       C  0.25681060  0.65047446  0.11779875     0.16100
C2244       C  0.24155833  0.64723206  0.12151013     0.25500
C2245       C  0.23358592  0.63548622  0.11386406    -0.40900
C2246       C  0.24116871  0.62713242  0.10235095     0.32500
C2247       C  0.28061096  0.64533206  0.10279194     0.01200
F2248       F  0.26424635  0.66184837  0.12535847    -0.13200
F2249       F  0.23388965  0.61564552  0.09482037    -0.13700
C2250       C  0.28457664  0.65917114  0.09570316     0.16100
C2251       C  0.29993273  0.66272906  0.09278651     0.25500
C2252       C  0.31165978  0.65255624  0.09707197    -0.40800
C2253       C  0.30758877  0.63851895  0.10391280     0.32400
C2254       C  0.29219041  0.63495092  0.10671155     0.14200
F2255       F  0.27351777  0.66922300  0.09153970    -0.13200
F2256       F  0.31849225  0.62850181  0.10852096    -0.13700
F2257       F  0.30327339  0.67603415  0.08551794    -0.16000
F2258       F  0.28859577  0.62156943  0.11373389    -0.14500
F2259       F  0.26362358  0.62197717  0.08775974    -0.14500
F2260       F  0.23448269  0.65585546  0.13231877    -0.15900
C2261       C  0.12694019  0.62408333  0.26001963     0.14100
C2262       C  0.13827574  0.63073071  0.25073376     0.01100
C2263       C  0.14862860  0.64118623  0.25723157     0.16100
C2264       C  0.14760143  0.64509869  0.27271944     0.25500
C2265       C  0.13619648  0.63858986  0.28208047    -0.40900
C2266       C  0.12597526  0.62788072  0.27561508     0.32500
C2267       C  0.13967356  0.62676370  0.23429126     0.01200
F2268       F  0.15968468  0.64775225  0.24847013    -0.13200
F2269       F  0.11477379  0.62142091  0.28425401    -0.13700
C2270       C  0.12871413  0.63171987  0.22361961     0.16100
C2271       C  0.13132168  0.62991756  0.20785322     0.25500
C2272       C  0.14496697  0.62313047  0.20256434    -0.40800
C2273       C  0.15538786  0.61729147  0.21337433     0.32400
C2274       C  0.15279521  0.61916913  0.22905401     0.14200
F2275       F  0.11590440  0.63905263  0.22844266    -0.13200
F2276       F  0.16817748  0.60979037  0.20878158    -0.13700
F2277       F  0.12094226  0.63564186  0.19782530    -0.16000
F2278       F  0.16330370  0.61386514  0.23918695    -0.14500
F2279       F  0.11690015  0.61384462  0.25400097    -0.14500
F2280       F  0.15802352  0.65501649  0.27862442    -0.15900
C2281       C  0.58561000  0.96697743  0.56870451     0.14100
C2282       C  0.58823860  0.96130768  0.55390668     0.01100
C2283       C  0.60253806  0.95503431  0.55030993     0.16100
C2284       C  0.61406295  0.95423764  0.56139946     0.25500
C2285       C  0.61152291  0.95981672  0.57635536    -0.40900
C2286       C  0.59715072  0.96628538  0.57984419     0.32500
C2287       C  0.57585826  0.96113392  0.54237230     0.01200
F2288       F  0.60519324  0.94929716  0.53610421    -0.13200
F2289       F  0.59428428  0.97212400  0.59395911    -0.13700
C2290       C  0.57468112  0.97283707  0.53145826     0.16100
C2291       C  0.56334422  0.97220704  0.52010429     0.25500
C2292       C  0.55310254  0.95973148  0.51940535    -0.40800
C2293       C  0.55434080  0.94806039  0.53046535     0.32400
C2294       C  0.56558210  0.94880969  0.54185729     0.14200
F2295       F  0.58464259  0.98477438  0.53171007    -0.13200
F2296       F  0.54454092  0.93598739  0.53040778    -0.13700
F2297       F  0.56270953  0.98356333  0.50953370    -0.16000
F2298       F  0.56657916  0.93738763  0.55232869    -0.14500
F2299       F  0.57181201  0.97308855  0.57237114    -0.14500
F2300       F  0.62744159  0.94735778  0.55760204    -0.15900
C2301       C  0.57527429  0.57941083  0.87080926     0.14100
C2302       C  0.58207427  0.58499663  0.88427185     0.01100
C2303       C  0.57648933  0.58002984  0.89850342     0.16100
C2304       C  0.56429400  0.56963814  0.89929266     0.25500
C2305       C  0.55740076  0.56394382  0.88579740    -0.40900
C2306       C  0.56308941  0.56901553  0.87152560     0.32500
C2307       C  0.59480494  0.59622078  0.88342285     0.01200
F2308       F  0.58268127  0.58548170  0.91169025    -0.13200
F2309       F  0.55694390  0.56393546  0.85817244    -0.13700
C2310       C  0.59252463  0.61043400  0.87634386     0.16100
C2311       C  0.60450382  0.62101270  0.87529809     0.25500
C2312       C  0.61906233  0.61760931  0.88135204    -0.40800
C2313       C  0.62131367  0.60336255  0.88850496     0.32400
C2314       C  0.60927772  0.59278042  0.88954507     0.14200
F2315       F  0.57859450  0.61413418  0.87054026    -0.13200
F2316       F  0.63504117  0.59979134  0.89482924    -0.13700
F2317       F  0.60190325  0.63442847  0.86796233    -0.16000
F2318       F  0.61180343  0.57907092  0.89635768    -0.14500
F2319       F  0.58060445  0.58388667  0.85689792    -0.14500
F2320       F  0.55929259  0.56520404  0.91333280    -0.15900
C2321       C  0.93485122  0.59022500  0.56464628     0.14100
C2322       C  0.92522103  0.59155372  0.55184687     0.01100
C2323       C  0.91645655  0.60483250  0.54993959     0.16100
C2324       C  0.91753851  0.61678648  0.56052561     0.25500
C2325       C  0.92734437  0.61559953  0.57327113    -0.40900
C2326       C  0.93585410  0.60211038  0.57533089     0.32500
C2327       C  0.92448358  0.57915800  0.54037053     0.01200
F2328       F  0.90703641  0.60630994  0.53766269    -0.13200
F2329       F  0.94552973  0.60060477  0.58739893    -0.13700
C2330       C  0.91103107  0.57056918  0.53853327     0.16100
C2331       C  0.91039447  0.55871674  0.52779194     0.25500
C2332       C  0.92326266  0.55523280  0.51864824    -0.40800
C2333       C  0.93666753  0.56410377  0.52039565     0.32400
C2334       C  0.93725110  0.57591824  0.53118445     0.14200
F2335       F  0.89857484  0.57350890  0.54735952    -0.13200
F2336       F  0.94915159  0.56159036  0.51148006    -0.13700
F2337       F  0.89722330  0.55052870  0.52656280    -0.16000
F2338       F  0.95022404  0.58440782  0.53250575    -0.14500
F2339       F  0.94326547  0.57737431  0.56678426    -0.14500
F2340       F  0.90875139  0.62939060  0.55845313    -0.15900
C2341       C  0.97700905  0.59814444  0.93394216     0.14100
C2342       C  0.96961691  0.61205608  0.93090088     0.01100
C2343       C  0.97263046  0.62473915  0.94028408     0.16100
C2344       C  0.98302870  0.62364899  0.95237671     0.25500
C2345       C  0.99060998  0.60976799  0.95542590    -0.40900
C2346       C  0.98741636  0.59698739  0.94609723     0.32500
C2347       C  0.95909774  0.61359922  0.91769164     0.01200
F2348       F  0.96539477  0.63822564  0.93776819    -0.13200
F2349       F  0.99472911  0.58350458  0.94837254    -0.13700
C2350       C  0.94558262  0.60489920  0.91683326     0.16100
C2351       C  0.93538627  0.60692869  0.90461662     0.25500
C2352       C  0.93858929  0.61766263  0.89300883    -0.40800
C2353       C  0.95224283  0.62622577  0.89385812     0.32400
C2354       C  0.96237480  0.62419640  0.90606533     0.14200
F2355       F  0.94210803  0.59467222  0.92800751    -0.13200
F2356       F  0.95558674  0.63698979  0.88317282    -0.13700
F2357       F  0.92252144  0.59820769  0.90403907    -0.16000
F2358       F  0.97544748  0.63262397  0.90655540    -0.14500
F2359       F  0.97451152  0.58581048  0.92482719    -0.14500
F2360       F  0.98555107  0.63621938  0.96115968    -0.15900
C2361       C  0.76876627  0.65318052  0.87173262     0.14100
C2362       C  0.77291652  0.64401319  0.85923278     0.01100
C2363       C  0.76147453  0.63775658  0.84982488     0.16100
C2364       C  0.74599796  0.64061131  0.85291761     0.25500
C2365       C  0.74180305  0.64990978  0.86537912    -0.40900
C2366       C  0.75333527  0.65617665  0.87475138     0.32500
C2367       C  0.78923527  0.64112565  0.85597494     0.01200
F2368       F  0.76533542  0.62904043  0.83755494    -0.13200
F2369       F  0.74964945  0.66495246  0.88703467    -0.13700
C2370       C  0.79662602  0.62846217  0.86244516     0.16100
C2371       C  0.81223801  0.62600397  0.85977139     0.25500
C2372       C  0.82064023  0.63614254  0.85048135    -0.40800
C2373       C  0.81312239  0.64874987  0.84388425     0.32400
C2374       C  0.79755463  0.65125229  0.84669210     0.14200
F2375       F  0.78869699  0.61852345  0.87139127    -0.13200
F2376       F  0.82094784  0.65895076  0.83514201    -0.13700
F2377       F  0.81904974  0.61352325  0.86596023    -0.16000
F2378       F  0.79060903  0.66366458  0.84050337    -0.14500
F2379       F  0.77969897  0.65922902  0.88100051    -0.14500
F2380       F  0.73515971  0.63476438  0.84341836    -0.15900
C2381       C  0.93407208  0.64147895  0.71427314     0.14100
C2382       C  0.92650387  0.65209388  0.72359680     0.01100
C2383       C  0.92149080  0.66593883  0.71728391     0.16100
C2384       C  0.92371513  0.66900675  0.70171652     0.25500
C2385       C  0.93113426  0.65826772  0.69221095    -0.40900
C2386       C  0.93649961  0.64457417  0.69875883     0.32500
C2387       C  0.92325733  0.64842717  0.73976998     0.01200
F2388       F  0.91392983  0.67624786  0.72610350    -0.13200
F2389       F  0.94431196  0.63422845  0.69023272    -0.13700
C2390       C  0.93070396  0.65635046  0.75162426     0.16100
C2391       C  0.92725323  0.65307549  0.76694484     0.25500
C2392       C  0.91607050  0.64205547  0.77054958    -0.40800
C2393       C  0.90882714  0.63397638  0.75863604     0.32400
C2394       C  0.91245805  0.63708597  0.74337123     0.14200
F2395       F  0.94121954  0.66732012  0.74832013    -0.13200
F2396       F  0.89827921  0.62298884  0.76178986    -0.13700
F2397       F  0.93432689  0.66113259  0.77820638    -0.16000
F2398       F  0.90515047  0.62929834  0.73205876    -0.14500
F2399       F  0.93913069  0.62808916  0.72024344    -0.14500
F2400       F  0.91797781  0.68218585  0.69591146    -0.15900
C2401       C  0.62312011  0.95950749  0.90076092     0.14100
C2402       C  0.61385478  0.95767233  0.91379007     0.01100
C2403       C  0.60600382  0.94379472  0.91598301     0.16100
C2404       C  0.60714032  0.93205558  0.90516946     0.25500
C2405       C  0.61618208  0.93399260  0.89197154    -0.40900
C2406       C  0.62433481  0.94775878  0.88999152     0.32500
C2407       C  0.61218631  0.97028710  0.92497900     0.01200
F2408       F  0.59721879  0.94161526  0.92863463    -0.13200
F2409       F  0.63369037  0.94979851  0.87773546    -0.13700
C2410       C  0.59761962  0.97608052  0.92847899     0.16100
C2411       C  0.59593247  0.98782756  0.93919166     0.25500
C2412       C  0.60884521  0.99418446  0.94654197    -0.40800
C2413       C  0.62348757  0.98843583  0.94283279     0.32400
C2414       C  0.62510219  0.97658646  0.93220674     0.14200
F2415       F  0.58499156  0.97052796  0.92128428    -0.13200
F2416       F  0.63631052  0.99409768  0.94958323    -0.13700
F2417       F  0.58161485  0.99304721  0.94218290    -0.16000
F2418       F  0.63930337  0.97105492  0.92918583    -0.14500
F2419       F  0.63072930  0.97283177  0.89826884    -0.14500
F2420       F  0.59896201  0.91902705  0.90737430    -0.15900
C2421       C  0.64027060  0.92306180  0.75227710     0.14100
C2422       C  0.63472646  0.91415796  0.74009316     0.01100
C2423       C  0.62646697  0.90074146  0.74325072     0.16100
C2424       C  0.62382623  0.89624694  0.75840228     0.25500
C2425       C  0.62951592  0.90505417  0.77066287    -0.40900
C2426       C  0.63771509  0.91856128  0.76743522     0.32500
C2427       C  0.63785367  0.91877248  0.72410241     0.01200
F2428       F  0.62079331  0.89209838  0.73163546    -0.13200
F2429       F  0.64377353  0.92713844  0.77890113    -0.13700
C2430       C  0.64755608  0.90992352  0.71486196     0.16100
C2431       C  0.65121977  0.91471222  0.70001782     0.25500
C2432       C  0.64503841  0.92832411  0.69408941    -0.40800
C2433       C  0.63501585  0.93697229  0.70323886     0.32400
C2434       C  0.63154842  0.93228234  0.71817653     0.14200
F2435       F  0.65372905  0.89679411  0.72035155    -0.13200
F2436       F  0.62900446  0.95023892  0.69792147    -0.13700
F2437       F  0.66060253  0.90588840  0.69134504    -0.16000
F2438       F  0.62203308  0.94091972  0.72689699    -0.14500
F2439       F  0.64854580  0.93591708  0.74945692    -0.14500
F2440       F  0.61537186  0.88347872  0.76105819    -0.15900
C2441       C  0.63264826  0.78710767  0.85109892     0.14100
C2442       C  0.64256657  0.78410295  0.86334424     0.01100
C2443       C  0.64818176  0.79621152  0.87225930     0.16100
C2444       C  0.64382521  0.81123649  0.86902134     0.25500
C2445       C  0.63390394  0.81431939  0.85670030    -0.40900
C2446       C  0.62838777  0.80211711  0.84774180     0.32500
C2447       C  0.64699941  0.76827120  0.86681053     0.01200
F2448       F  0.65793063  0.79345043  0.88404335    -0.13200
F2449       F  0.61859097  0.80468142  0.83595501    -0.13700
C2450       C  0.66049347  0.76219168  0.86066013     0.16100
C2451       C  0.66447170  0.74700232  0.86355231     0.25500
C2452       C  0.65497255  0.73767150  0.87269209    -0.40800
C2453       C  0.64147194  0.74390503  0.87890734     0.32400
C2454       C  0.63753115  0.75909693  0.87596303     0.14200
F2455       F  0.66965193  0.77091238  0.85160466    -0.13200
F2456       F  0.63221215  0.73540549  0.88805883    -0.13700
F2457       F  0.67728902  0.74130551  0.85688842    -0.16000
F2458       F  0.62445190  0.76489104  0.88201866    -0.14500
F2459       F  0.62712240  0.77546814  0.84239972    -0.14500
F2460       F  0.64970932  0.82278232  0.87760529    -0.15900
C2461       C  0.95524153  0.94348345  0.57881231     0.14100
C2462       C  0.95304225  0.95681409  0.58748351     0.01100
C2463       C  0.93912080  0.95901010  0.59519779     0.16100
C2464       C  0.92741239  0.94814545  0.59400105     0.25500
C2465       C  0.92948340  0.93489259  0.58508396    -0.40900
C2466       C  0.94358198  0.93260209  0.57762025     0.32500
C2467       C  0.96509149  0.96866627  0.58788517     0.01200
F2468       F  0.93674776  0.97184890  0.60360213    -0.13200
F2469       F  0.94593825  0.92009569  0.56872643    -0.13700
C2470       C  0.96961204  0.97584135  0.57426164     0.16100
C2471       C  0.98137344  0.98665065  0.57431805     0.25500
C2472       C  0.98892667  0.99053029  0.58808141    -0.40800
C2473       C  0.98410234  0.98349430  0.60182525     0.32400
C2474       C  0.97227566  0.97266602  0.60169407     0.14200
F2475       F  0.96250461  0.97243373  0.56084786    -0.13200
F2476       F  0.99091052  0.98687977  0.61539217    -0.13700
F2477       F  0.98526643  0.99330871  0.56081859    -0.16000
F2478       F  0.96807661  0.96580142  0.61500028    -0.14500
F2479       F  0.96871071  0.94105528  0.57143127    -0.14500
F2480       F  0.91417107  0.95048244  0.60179296    -0.15900
C2481       C  0.91027312  0.79412017  0.57969169     0.14100
C2482       C  0.90465302  0.78523893  0.59183207     0.01100
C2483       C  0.89423799  0.79165428  0.60226437     0.16100
C2484       C  0.88932127  0.80673871  0.60045289     0.25500
C2485       C  0.89496469  0.81566428  0.58832039    -0.40900
C2486       C  0.90558763  0.80929510  0.57803672     0.32500
C2487       C  0.91015341  0.76948849  0.59409470     0.01200
F2488       F  0.88892704  0.78329773  0.61425437    -0.13200
F2489       F  0.91128753  0.81772358  0.56628208    -0.13700
C2490       C  0.91957294  0.76615946  0.60661380     0.16100
C2491       C  0.92432920  0.75121061  0.60932915     0.25500
C2492       C  0.91944343  0.73915917  0.59974101    -0.40800
C2493       C  0.91030313  0.74263595  0.58688840     0.32400
C2494       C  0.90579877  0.75772973  0.58404950     0.14200
F2495       F  0.92420782  0.77746568  0.61622801    -0.13200
F2496       F  0.90515441  0.73144450  0.57742282    -0.13700
F2497       F  0.93390843  0.74865466  0.62128406    -0.16000
F2498       F  0.89675036  0.76081213  0.57179524    -0.14500
F2499       F  0.92055743  0.78818114  0.56967136    -0.14500
F2500       F  0.87954578  0.81281584  0.61089153    -0.15900
C2501       C  0.78663155  0.92553212  0.58254490     0.14100
C2502       C  0.77687559  0.91784645  0.59274071     0.01100
C2503       C  0.78216910  0.90477479  0.60036814     0.16100
C2504       C  0.79704805  0.89943479  0.59788228     0.25500
C2505       C  0.80695695  0.90716571  0.58776838    -0.40900
C2506       C  0.80158798  0.92029571  0.58012701     0.32500
C2507       C  0.76143682  0.92384184  0.59615111     0.01200
F2508       F  0.77293227  0.89728965  0.61039781    -0.13200
F2509       F  0.81074209  0.92798629  0.57018386    -0.13700
C2510       C  0.74928468  0.92173570  0.58582867     0.16100
C2511       C  0.73445360  0.92650601  0.58970775     0.25500
C2512       C  0.73160415  0.93344695  0.60400272    -0.40800
C2513       C  0.74396310  0.93593338  0.61407058     0.32400
C2514       C  0.75871100  0.93114560  0.61017857     0.14200
F2515       F  0.75170317  0.91457672  0.57224294    -0.13200
F2516       F  0.74182022  0.94314162  0.62767147    -0.13700
F2517       F  0.72280962  0.92364789  0.57980847    -0.16000
F2518       F  0.77038580  0.93354824  0.62016876    -0.14500
F2519       F  0.78176401  0.93829632  0.57519538    -0.14500
F2520       F  0.80194081  0.88709065  0.60589666    -0.15900
C2521       C  0.43729024  0.95177236  0.55129312     0.14100
C2522       C  0.45135959  0.95901074  0.55419604     0.01100
C2523       C  0.45414215  0.96520856  0.56878059     0.16100
C2524       C  0.44322073  0.96369529  0.58045549     0.25500
C2525       C  0.42928740  0.95601206  0.57770722    -0.40900
C2526       C  0.42636841  0.95025786  0.56290506     0.32500
C2527       C  0.46349150  0.95899944  0.54232293     0.01200
F2528       F  0.46767000  0.97224329  0.57186690    -0.13200
F2529       F  0.41327744  0.94246459  0.55978843    -0.13700
C2530       C  0.46916495  0.97270263  0.53615185     0.16100
C2531       C  0.48051645  0.97244903  0.52478510     0.25500
C2532       C  0.48644852  0.95842062  0.51939591    -0.40800
C2533       C  0.48073716  0.94472609  0.52579718     0.32400
C2534       C  0.46941489  0.94505372  0.53709452     0.14200
F2535       F  0.46350682  0.98633129  0.54094435    -0.13200
F2536       F  0.48605490  0.93090073  0.52119088    -0.13700
F2537       F  0.48562245  0.98596733  0.51908546    -0.16000
F2538       F  0.46432832  0.93166294  0.54311982    -0.14500
F2539       F  0.43424997  0.94589428  0.53721476    -0.14500
F2540       F  0.44628147  0.96978080  0.59443054    -0.15900
C2541       C  0.12661271  0.56279120  0.54964602     0.14100
C2542       C  0.11417888  0.57284037  0.55080646     0.01100
C2543       C  0.10151274  0.57090511  0.54110320     0.16100
C2544       C  0.10147950  0.55931657  0.53003376     0.25500
C2545       C  0.11417283  0.54950441  0.52850078    -0.40900
C2546       C  0.12662883  0.55122168  0.53860854     0.32500
C2547       C  0.11488492  0.58584957  0.56156764     0.01200
F2548       F  0.08945574  0.58063672  0.54195245    -0.13200
F2549       F  0.13883655  0.54167262  0.53785511    -0.13700
C2550       C  0.12540085  0.59772756  0.55900093     0.16100
C2551       C  0.12639057  0.60999835  0.56920066     0.25500
C2552       C  0.11693309  0.61054359  0.58224594    -0.40800
C2553       C  0.10638635  0.59859007  0.58479944     0.32400
C2554       C  0.10531549  0.58638311  0.57446915     0.14200
F2555       F  0.13472077  0.59742096  0.54655152    -0.13200
F2556       F  0.09690923  0.59884473  0.59712479    -0.13700
F2557       F  0.13698696  0.62106489  0.56656196    -0.16000
F2558       F  0.09511192  0.57496024  0.57716325    -0.14500
F2559       F  0.13881055  0.56428545  0.55917610    -0.14500
F2560       F  0.08933984  0.55817219  0.52038313    -0.15900
C2561       C  0.44279701  0.59966985  0.87658783     0.14100
C2562       C  0.45403171  0.59955940  0.88807830     0.01100
C2563       C  0.45382404  0.61085673  0.89951758     0.16100
C2564       C  0.44255699  0.62219661  0.89941414     0.25500
C2565       C  0.43117047  0.62217235  0.88804961    -0.40900
C2566       C  0.43139402  0.61083826  0.87661807     0.32500
C2567       C  0.46608279  0.58775912  0.88801041     0.01200
F2568       F  0.46460345  0.61093138  0.91071976    -0.13200
F2569       F  0.42073385  0.61075523  0.86529800    -0.13700
C2570       C  0.47689107  0.58733376  0.87611456     0.16100
C2571       C  0.48838944  0.57624312  0.87604867     0.25500
C2572       C  0.48929200  0.56544545  0.88795158    -0.40800
C2573       C  0.47836575  0.56584722  0.89981538     0.32400
C2574       C  0.46683315  0.57690294  0.89981225     0.14200
F2575       F  0.47644895  0.59786485  0.86470716    -0.13200
F2576       F  0.47856934  0.55525737  0.91117978    -0.13700
F2577       F  0.49887294  0.57632492  0.86456184    -0.16000
F2578       F  0.45620049  0.57684322  0.91116641    -0.14500
F2579       F  0.44276485  0.58881311  0.86546675    -0.14500
F2580       F  0.44247820  0.63289560  0.91068096    -0.15900
C2581       C  0.07435823  0.61709625  0.94004009     0.14100
C2582       C  0.07954030  0.60292806  0.93471159     0.01100
C2583       C  0.07323561  0.58943809  0.94069551     0.16100
C2584       C  0.06192022  0.59011703  0.95204333     0.25500
C2585       C  0.05664744  0.60437497  0.95747647    -0.40900
C2586       C  0.06306301  0.61786030  0.95128689     0.32500
C2587       C  0.09161295  0.60245519  0.92292965     0.01200
F2588       F  0.07820864  0.57561996  0.93568944    -0.13200
F2589       F  0.05843505  0.63189704  0.95600865    -0.13700
C2590       C  0.10631280  0.60798834  0.92632651     0.16100
C2591       C  0.11738813  0.60911204  0.91483706     0.25500
C2592       C  0.11389770  0.60473734  0.89970455    -0.40800
C2593       C  0.09924775  0.59874925  0.89646027     0.32400
C2594       C  0.08819860  0.59763244  0.90799899     0.14200
F2595       F  0.10980074  0.61264247  0.94075466    -0.13200
F2596       F  0.09558762  0.59393793  0.88213563    -0.13700
F2597       F  0.13123658  0.61520754  0.91842098    -0.16000
F2598       F  0.07398239  0.59237382  0.90448663    -0.14500
F2599       F  0.08014270  0.63026855  0.93415459    -0.14500
F2600       F  0.05622929  0.57681212  0.95769607    -0.15900
C2601       C  0.25708229  0.61573177  0.87209063     0.14100
C2602       C  0.26365789  0.62875893  0.86534094     0.01100
C2603       C  0.25495520  0.63764473  0.85523204     0.16100
C2604       C  0.23977444  0.63380664  0.85213145     0.25500
C2605       C  0.23297839  0.62097965  0.85913558    -0.40900
C2606       C  0.24178305  0.61191053  0.86908312     0.32500
C2607       C  0.27936995  0.63363671  0.86920848     0.01200
F2608       F  0.26116941  0.65018071  0.84845749    -0.13200
F2609       F  0.23563325  0.59929215  0.87574503    -0.13700
C2610       C  0.29202805  0.62494419  0.86459919     0.16100
C2611       C  0.30690408  0.63035511  0.86717959     0.25500
C2612       C  0.30931345  0.64454646  0.87449764    -0.40800
C2613       C  0.29653823  0.65297733  0.87947089     0.32400
C2614       C  0.28172371  0.64758642  0.87679050     0.14200
F2615       F  0.28995991  0.61151521  0.85706356    -0.13200
F2616       F  0.29833331  0.66634027  0.88716924    -0.13700
F2617       F  0.31887007  0.62200370  0.86189713    -0.16000
F2618       F  0.26959492  0.65602013  0.88157199    -0.14500
F2619       F  0.26536383  0.60696586  0.88186028    -0.14500
F2620       F  0.23156681  0.64306920  0.84276887    -0.15900
C2621       C  0.13847684  0.65481957  0.72534078     0.14100
C2622       C  0.12967350  0.64321970  0.73209532     0.01100
C2623       C  0.11832126  0.63579267  0.72349964     0.16100
C2624       C  0.11604566  0.63966652  0.70813163     0.25500
C2625       C  0.12505539  0.65110788  0.70120530    -0.40900
C2626       C  0.13615154  0.65881042  0.71003922     0.32500
C2627       C  0.13284543  0.63848988  0.74794790     0.01200
F2628       F  0.10972504  0.62453473  0.72990865    -0.13200
F2629       F  0.14525540  0.66971782  0.70373142    -0.13700
C2630       C  0.12285070  0.64250214  0.75984722     0.16100
C2631       C  0.12641318  0.63874975  0.77500748     0.25500
C2632       C  0.14000746  0.63080930  0.77842480    -0.40800
C2633       C  0.14970591  0.62635515  0.76630771     0.32400
C2634       C  0.14620004  0.63029290  0.75123380     0.14200
F2635       F  0.10991149  0.65051061  0.75680618    -0.13200
F2636       F  0.16250630  0.61799766  0.76895765    -0.13700
F2637       F  0.11690201  0.64349982  0.78633272    -0.16000
F2638       F  0.15586315  0.62611702  0.73978834    -0.14500
F2639       F  0.14948950  0.66212797  0.73355279    -0.14500
F2640       F  0.10496095  0.63231357  0.70007262    -0.15900
C2641       C  0.07762982  0.97232687  0.59540427     0.14100
C2642       C  0.07925338  0.96430265  0.58155974     0.01100
C2643       C  0.06941477  0.96766629  0.56935187     0.16100
C2644       C  0.05814389  0.97892431  0.57086183     0.25500
C2645       C  0.05646804  0.98718219  0.58467814    -0.40900
C2646       C  0.06635457  0.98366330  0.59698031     0.32500
C2647       C  0.09134189  0.95255851  0.57964990     0.01200
F2648       F  0.07074720  0.95999692  0.55589529    -0.13200
F2649       F  0.06542401  0.99143631  0.61040801    -0.13700
C2650       C  0.08888307  0.93749258  0.58456771     0.16100
C2651       C  0.10019058  0.92631657  0.58246668     0.25500
C2652       C  0.11424287  0.92998646  0.57528918    -0.40800
C2653       C  0.11646201  0.94512777  0.57010856     0.32400
C2654       C  0.10516779  0.95626680  0.57235142     0.14200
F2655       F  0.07546030  0.93359295  0.59139296    -0.13200
F2656       F  0.12940273  0.94917213  0.56250441    -0.13700
F2657       F  0.09742527  0.91203899  0.58785820    -0.16000
F2658       F  0.10771232  0.97073859  0.56734022    -0.14500
F2659       F  0.08716066  0.96934705  0.60731148    -0.14500
F2660       F  0.04879394  0.98161721  0.55874678    -0.15900
C2661       C  0.26466991  0.89773871  0.58449509     0.14100
C2662       C  0.26736843  0.91167243  0.59203496     0.01100
C2663       C  0.25498314  0.92146970  0.59492859     0.16100
C2664       C  0.24008374  0.91724526  0.59073656     0.25500
C2665       C  0.23725919  0.90310505  0.58349746    -0.40900
C2666       C  0.24979730  0.89350465  0.58023148     0.32500
C2667       C  0.28299586  0.91576348  0.59735620     0.01200
F2668       F  0.25724147  0.93490394  0.60239560    -0.13200
F2669       F  0.24774703  0.88006443  0.57272749    -0.13700
C2670       C  0.29018858  0.92919625  0.59221359     0.16100
C2671       C  0.30480718  0.93316945  0.59750643     0.25500
C2672       C  0.31254723  0.92375178  0.60804891    -0.40800
C2673       C  0.30528373  0.91029843  0.61318224     0.32400
C2674       C  0.29067436  0.90635803  0.60787691     0.14200
F2675       F  0.28309881  0.93840301  0.58192031    -0.13200
F2676       F  0.31244589  0.90069152  0.62303568    -0.13700
F2677       F  0.31120295  0.94643804  0.59257071    -0.16000
F2678       F  0.28391391  0.89340961  0.61318680    -0.14500
F2679       F  0.27649109  0.88823764  0.58118881    -0.14500
F2680       F  0.22839338  0.92672288  0.59447479    -0.15900
C2681       C  0.13563344  0.75412631  0.59023419     0.14100
C2682       C  0.14401902  0.76381962  0.59991297     0.01100
C2683       C  0.15000578  0.75810195  0.61363497     0.16100
C2684       C  0.14766871  0.74282333  0.61768132     0.25500
C2685       C  0.13917095  0.73299322  0.60807165    -0.40900
C2686       C  0.13321825  0.73881833  0.59425518     0.32500
C2687       C  0.14692281  0.77984070  0.59556050     0.01200
F2688       F  0.15818377  0.76735426  0.62309407    -0.13200
F2689       F  0.12467702  0.72987614  0.58483511    -0.13700
C2690       C  0.13646099  0.79131058  0.59949478     0.16100
C2691       C  0.13951104  0.80658412  0.59579134     0.25500
C2692       C  0.15307734  0.81060658  0.58797624    -0.40800
C2693       C  0.16352164  0.79896344  0.58405916     0.32400
C2694       C  0.16045773  0.78373636  0.58786909     0.14200
F2695       F  0.12340958  0.78772022  0.60716200    -0.13200
F2696       F  0.17657961  0.80220417  0.57626788    -0.13700
F2697       F  0.12943970  0.81744650  0.60038092    -0.16000
F2698       F  0.17071967  0.77273410  0.58406714    -0.14500
F2699       F  0.12975204  0.75953118  0.57690940    -0.14500
F2700       F  0.15408344  0.73760710  0.63082951    -0.15900
C2701       C  0.44063734  0.96439048  0.90198357     0.14100
C2702       C  0.44543000  0.96083332  0.91689911     0.01100
C2703       C  0.45011631  0.94586002  0.92022084     0.16100
C2704       C  0.44956008  0.93449878  0.90894150     0.25500
C2705       C  0.44407637  0.93782988  0.89411759    -0.40900
C2706       C  0.43986597  0.95303251  0.89073179     0.32500
C2707       C  0.44483995  0.97254434  0.92915860     0.01200
F2708       F  0.45477680  0.94210610  0.93456816    -0.13200
F2709       F  0.43435671  0.95692309  0.87674893    -0.13700
C2710       C  0.43088819  0.97960273  0.93285235     0.16100
C2711       C  0.43011040  0.99034386  0.94468516     0.25500
C2712       C  0.44332339  0.99428233  0.95311258    -0.40800
C2713       C  0.45732453  0.98718971  0.94931676     0.32400
C2714       C  0.45805007  0.97645769  0.93745374     0.14200
F2715       F  0.41789711  0.97587623  0.92514653    -0.13200
F2716       F  0.47035100  0.99047825  0.95715322    -0.13700
F2717       F  0.41639541  0.99695326  0.94774450    -0.16000
F2718       F  0.47172875  0.96999701  0.93394088    -0.14500
F2719       F  0.43651699  0.97889894  0.89834652    -0.14500
F2720       F  0.45447931  0.92026537  0.91259581    -0.15900
C2721       C  0.38877008  0.76484399  0.86521925     0.14100
C2722       C  0.40049277  0.77172357  0.87381820     0.01100
C2723       C  0.40768337  0.76332598  0.88544585     0.16100
C2724       C  0.40345378  0.74813141  0.88823074     0.25500
C2725       C  0.39186061  0.74107514  0.87947151    -0.40900
C2726       C  0.38443007  0.74968510  0.86804470     0.32500
C2727       C  0.40560783  0.78747428  0.87027018     0.01200
F2728       F  0.41908290  0.76975163  0.89385758    -0.13200
F2729       F  0.37340090  0.74329088  0.85914307    -0.13700
C2730       C  0.40290047  0.79946802  0.88059276     0.16100
C2731       C  0.40767101  0.81437507  0.87711817     0.25500
C2732       C  0.41540259  0.81752124  0.86328195    -0.40800
C2733       C  0.41825609  0.80535026  0.85306705     0.32400
C2734       C  0.41332007  0.79051954  0.85650800     0.14200
F2735       F  0.39529840  0.79678318  0.89389255    -0.13200
F2736       F  0.42615091  0.80766179  0.83987352    -0.13700
F2737       F  0.40419902  0.82576799  0.88706901    -0.16000
F2738       F  0.41628326  0.77902675  0.84648434    -0.14500
F2739       F  0.38160184  0.77281311  0.85398350    -0.14500
F2740       F  0.41061927  0.74039234  0.89962022    -0.15900
C2741       C  0.40607593  0.90059832  0.75168179     0.14100
C2742       C  0.41491484  0.91134203  0.74362561     0.01100
C2743       C  0.42737991  0.91840639  0.75098693     0.16100
C2744       C  0.43081991  0.91490253  0.76627073     0.25500
C2745       C  0.42197552  0.90409797  0.77432577    -0.40900
C2746       C  0.40957685  0.89698176  0.76686031     0.32500
C2747       C  0.41081001  0.91535543  0.72766840     0.01200
F2748       F  0.43606514  0.92885889  0.74343269    -0.13200
F2749       F  0.40051938  0.88683084  0.77438845    -0.13700
C2750       C  0.39653443  0.92199227  0.72450190     0.16100
C2751       C  0.39228716  0.92528365  0.70941978     0.25500
C2752       C  0.40228385  0.92204658  0.69719003    -0.40800
C2753       C  0.41664983  0.91550560  0.70040091     0.32400
C2754       C  0.42085852  0.91216871  0.71551942     0.14200
F2755       F  0.38674817  0.92542218  0.73608933    -0.13200
F2756       F  0.42637800  0.91176790  0.68887129    -0.13700
F2757       F  0.37852106  0.93197350  0.70684212    -0.16000
F2758       F  0.43454597  0.90537783  0.71826852    -0.14500
F2759       F  0.39406222  0.89352118  0.74477891    -0.14500
F2760       F  0.44298772  0.92180985  0.77306775    -0.15900
C2761       C  0.11933838  0.44864320  0.57306364     0.14100
C2762       C  0.12256545  0.44603796  0.55755269     0.01100
C2763       C  0.12743020  0.43149091  0.55291613     0.16100
C2764       C  0.12925104  0.41973965  0.56366280     0.25500
C2765       C  0.12592315  0.42221097  0.57932118    -0.40900
C2766       C  0.12081291  0.43686716  0.58380766     0.32500
C2767       C  0.12113183  0.45862066  0.54628354     0.01200
F2768       F  0.13080417  0.42877268  0.53797943    -0.13200
F2769       F  0.11681966  0.43986077  0.59851441    -0.13700
C2770       C  0.13120561  0.47113624  0.54687613     0.16100
C2771       C  0.12995414  0.48304710  0.53626090     0.25500
C2772       C  0.11843514  0.48277748  0.52496641    -0.40800
C2773       C  0.10824331  0.47028951  0.52448791     0.32400
C2774       C  0.10967430  0.45824784  0.53498811     0.14200
F2775       F  0.14239594  0.47171492  0.55765837    -0.13200
F2776       F  0.09718262  0.46952253  0.51358950    -0.13700
F2777       F  0.13985292  0.49500548  0.53721843    -0.16000
F2778       F  0.09979971  0.44626126  0.53422767    -0.14500
F2779       F  0.11450216  0.46261081  0.57778443    -0.14500
F2780       F  0.13472006  0.40612648  0.55867286    -0.15900
C2781       C  0.47820046  0.08968332  0.53708894     0.14100
C2782       C  0.47570334  0.07662294  0.54607967     0.01100
C2783       C  0.48338022  0.06303766  0.54242992     0.16100
C2784       C  0.49353794  0.06254619  0.53000967     0.25500
C2785       C  0.49612383  0.07566387  0.52092730    -0.40900
C2786       C  0.48827780  0.08923983  0.52464305     0.32500
C2787       C  0.46516900  0.07738714  0.55934276     0.01200
F2788       F  0.48130091  0.05033982  0.55112739    -0.13200
F2789       F  0.49017983  0.10210151  0.51615445    -0.13700
C2790       C  0.45108024  0.06963100  0.55907881     0.16100
C2791       C  0.44051062  0.07161245  0.57098854     0.25500
C2792       C  0.44389692  0.08135719  0.58340920    -0.40800
C2793       C  0.45831451  0.08862389  0.58388847     0.32400
C2794       C  0.46881168  0.08666142  0.57194898     0.14200
F2795       F  0.44735464  0.06054751  0.54702141    -0.13200
F2796       F  0.46202228  0.09826610  0.59549524    -0.13700
F2797       F  0.42697620  0.06397234  0.57035457    -0.16000
F2798       F  0.48248794  0.09405829  0.57253747    -0.14500
F2799       F  0.47069806  0.10287743  0.54029868    -0.14500
F2800       F  0.50111147  0.04931394  0.52715980    -0.15900
C2801       C  0.45873501  0.44956570  0.89882942     0.14100
C2802       C  0.45406083  0.46407403  0.89392720     0.01100
C2803       C  0.43875021  0.46648437  0.88984254     0.16100
C2804       C  0.42821680  0.45443508  0.89039804     0.25500
C2805       C  0.43286975  0.43972394  0.89506970    -0.40900
C2806       C  0.44824288  0.43746956  0.89941360     0.32500
C2807       C  0.46531711  0.47658166  0.89267321     0.01200
F2808       F  0.43407519  0.48047474  0.88505126    -0.13200
F2809       F  0.45312639  0.42360609  0.90434984    -0.13700
C2810       C  0.47267743  0.47940195  0.87868965     0.16100
C2811       C  0.48389369  0.49079194  0.87759398     0.25500
C2812       C  0.48794409  0.49958081  0.89054663    -0.40800
C2813       C  0.48021566  0.49685385  0.90450141     0.32400
C2814       C  0.46902128  0.48543732  0.90551813     0.14200
F2815       F  0.46916170  0.47090466  0.86614847    -0.13200
F2816       F  0.48340037  0.50524509  0.91719782    -0.13700
F2817       F  0.49101397  0.49290474  0.86392913    -0.16000
F2818       F  0.46181649  0.48295223  0.91907794    -0.14500
F2819       F  0.47354386  0.44709839  0.90284344    -0.14500
F2820       F  0.41366493  0.45708129  0.88567176    -0.15900
C2821       C  0.42396513  0.07880639  0.93921661     0.14100
C2822       C  0.43733890  0.08529698  0.93311889     0.01100
C2823       C  0.45164964  0.07964692  0.93772400     0.16100
C2824       C  0.45259829  0.06764545  0.94825414     0.25500
C2825       C  0.43919489  0.06108576  0.95447832    -0.40900
C2826       C  0.42484255  0.06685763  0.94978238     0.32500
C2827       C  0.43631944  0.09757596  0.92152485     0.01200
F2828       F  0.46475386  0.08588161  0.93210883    -0.13200
F2829       F  0.41155260  0.06099533  0.95535712    -0.13700
C2830       C  0.42878347  0.11135416  0.92484449     0.16100
C2831       C  0.42735785  0.12267889  0.91362264     0.25500
C2832       C  0.43356863  0.12045548  0.89888764    -0.40800
C2833       C  0.44138061  0.10671227  0.89575199     0.32400
C2834       C  0.44261021  0.09537229  0.90691241     0.14200
F2835       F  0.42280696  0.11384187  0.93898600    -0.13200
F2836       F  0.44811820  0.10424653  0.88196737    -0.13700
F2837       F  0.41948042  0.13557166  0.91709504    -0.16000
F2838       F  0.44970431  0.08204677  0.90332961    -0.14500
F2839       F  0.40998596  0.08383555  0.93467085    -0.14500
F2840       F  0.46667859  0.06249003  0.95228508    -0.15900
C2841       C  0.42445668  0.26646005  0.84968529     0.14100
C2842       C  0.41479504  0.27183623  0.86130427     0.01100
C2843       C  0.40790574  0.26142198  0.87141564     0.16100
C2844       C  0.41044272  0.24572083  0.86975134     0.25500
C2845       C  0.41992818  0.24025225  0.85792226    -0.40900
C2846       C  0.42705966  0.25080394  0.84802493     0.32500
C2847       C  0.41164833  0.28831920  0.86263139     0.01200
F2848       F  0.39836380  0.26646284  0.88260227    -0.13200
F2849       F  0.43676121  0.24599863  0.83687619    -0.13700
C2850       C  0.40202044  0.29549588  0.85199970     0.16100
C2851       C  0.39885108  0.31109021  0.85330853     0.25500
C2852       C  0.40537961  0.31977297  0.86523036    -0.40800
C2853       C  0.41523125  0.31255100  0.87573779     0.32400
C2854       C  0.41827318  0.29691605  0.87446598     0.14200
F2855       F  0.39554797  0.28732146  0.84045693    -0.13200
F2856       F  0.42147994  0.32045648  0.88757612    -0.13700
F2857       F  0.38959147  0.31773553  0.84276309    -0.16000
F2858       F  0.42768755  0.29013021  0.88478276    -0.14500
F2859       F  0.43139491  0.27642141  0.83997046    -0.14500
F2860       F  0.40309267  0.23587626  0.87927357    -0.15900
C2861       C  0.43021321  0.12947353  0.71982200     0.14100
C2862       C  0.41954223  0.12676969  0.73152920     0.01100
C2863       C  0.40594640  0.11887763  0.72822634     0.16100
C2864       C  0.40280450  0.11414357  0.71327257     0.25500
C2865       C  0.41322953  0.11727520  0.70135533    -0.40900
C2866       C  0.42709344  0.12476539  0.70481847     0.32500
C2867       C  0.42205372  0.13307719  0.74697961     0.01200
F2868       F  0.39564434  0.11590881  0.73950288    -0.13200
F2869       F  0.43724598  0.12828276  0.69357909    -0.13700
C2870       C  0.41326497  0.14551649  0.75197218     0.16100
C2871       C  0.41535327  0.15151627  0.76664513     0.25500
C2872       C  0.42617324  0.14502993  0.77663106    -0.40800
C2873       C  0.43502020  0.13257566  0.77157248     0.32400
C2874       C  0.43302463  0.12669936  0.75679385     0.14200
F2875       F  0.40260607  0.15181617  0.74259690    -0.13200
F2876       F  0.44574661  0.12624471  0.78084439    -0.13700
F2877       F  0.40636182  0.16328253  0.77126396    -0.16000
F2878       F  0.44159751  0.11463831  0.75213324    -0.14500
F2879       F  0.44334270  0.13725923  0.72282597    -0.14500
F2880       F  0.38958863  0.10642352  0.71048802    -0.15900
C2881       C  0.07875480  0.06907283  0.59891583     0.14100
C2882       C  0.08595554  0.07220709  0.58488729     0.01100
C2883       C  0.08020657  0.06560445  0.57142437     0.16100
C2884       C  0.06746277  0.05593118  0.57195132     0.25500
C2885       C  0.06015127  0.05269046  0.58601986    -0.40900
C2886       C  0.06599008  0.05940979  0.59951420     0.32500
C2887       C  0.09940930  0.08246882  0.58432408     0.01200
F2888       F  0.08715266  0.06828748  0.55776539    -0.13200
F2889       F  0.05936296  0.05673744  0.61332852    -0.13700
C2890       C  0.11285446  0.07869959  0.59227338     0.16100
C2891       C  0.12534607  0.08873026  0.59232671     0.25500
C2892       C  0.12455543  0.10273923  0.58445321    -0.40800
C2893       C  0.11117877  0.10631069  0.57620054     0.32400
C2894       C  0.09873218  0.09624255  0.57612326     0.14200
F2895       F  0.11384248  0.06529754  0.60003972    -0.13200
F2896       F  0.11017342  0.11948706  0.56806286    -0.13700
F2897       F  0.13794242  0.08498999  0.60060367    -0.16000
F2898       F  0.08585149  0.10011321  0.56834238    -0.14500
F2899       F  0.08398117  0.07558113  0.61204298    -0.14500
F2900       F  0.06252815  0.04953361  0.55866182    -0.15900
C2901       C  0.13856349  0.27233005  0.61709624     0.14100
C2902       C  0.14476042  0.26804066  0.60292328     0.01100
C2903       C  0.14699383  0.27918436  0.59157710     0.16100
C2904       C  0.14397611  0.29459525  0.59470351     0.25500
C2905       C  0.13856240  0.29908182  0.60925077    -0.40900
C2906       C  0.13536197  0.28765600  0.62020265     0.32500
C2907       C  0.14984679  0.25212610  0.60043231     0.01200
F2908       F  0.15283845  0.27522806  0.57772256    -0.13200
F2909       F  0.12909802  0.29124329  0.63396648    -0.13700
C2910       C  0.14261035  0.24275049  0.58956991     0.16100
C2911       C  0.14741541  0.22763360  0.58750010     0.25500
C2912       C  0.15965033  0.22171281  0.59617871    -0.40800
C2913       C  0.16696227  0.23121724  0.60693819     0.32400
C2914       C  0.16204979  0.24626057  0.60908020     0.14200
F2915       F  0.13072777  0.24816893  0.58116515    -0.13200
F2916       F  0.17851154  0.22581060  0.61579477    -0.13700
F2917       F  0.14026007  0.21888255  0.57682126    -0.16000
F2918       F  0.16923725  0.25516925  0.61961204    -0.14500
F2919       F  0.13579711  0.26163813  0.62803017    -0.14500
F2920       F  0.14717338  0.30512030  0.58374790    -0.15900
C2921       C  0.30177942  0.12696991  0.61642085     0.14100
C2922       C  0.29428144  0.11827071  0.60520035     0.01100
C2923       C  0.30195000  0.10598705  0.59830731     0.16100
C2924       C  0.31702507  0.10251212  0.60250738     0.25500
C2925       C  0.32464133  0.11126383  0.61374145    -0.40900
C2926       C  0.31679367  0.12352367  0.62067731     0.32500
C2927       C  0.27836388  0.12200527  0.60092566     0.01200
F2928       F  0.29485326  0.09744329  0.58742278    -0.13200
F2929       F  0.32372786  0.13251431  0.63129305    -0.13700
C2930       C  0.27511844  0.13562877  0.59311984     0.16100
C2931       C  0.25995285  0.13978351  0.59012359     0.25500
C2932       C  0.24774693  0.13043227  0.59504521    -0.40800
C2933       C  0.25110950  0.11655674  0.60252431     0.32400
C2934       C  0.26629670  0.11239448  0.60540483     0.14200
F2935       F  0.28668114  0.14494460  0.58847741    -0.13200
F2936       F  0.23973459  0.10735141  0.60777389    -0.13700
F2937       F  0.25724663  0.15288799  0.58227587    -0.16000
F2938       F  0.26922174  0.09927518  0.61315972    -0.14500
F2939       F  0.29446780  0.13877693  0.62335860    -0.14500
F2940       F  0.32399501  0.09036421  0.59583823    -0.15900
C2941       C  0.09259230  0.38883102  0.90893972     0.14100
C2942       C  0.09267834  0.39792693  0.92216798     0.01100
C2943       C  0.10472323  0.40826767  0.92460750     0.16100
C2944       C  0.11633276  0.40987758  0.91373326     0.25500
C2945       C  0.11609046  0.40112843  0.90017654    -0.40900
C2946       C  0.10420971  0.39040042  0.89801122     0.32500
C2947       C  0.07981377  0.39731363  0.93307899     0.01200
F2948       F  0.10507697  0.41701251  0.93746090    -0.13200
F2949       F  0.10383693  0.38137409  0.88536794    -0.13700
C2950       C  0.07719003  0.38423487  0.94199002     0.16100
C2951       C  0.06532160  0.38402504  0.95275066     0.25500
C2952       C  0.05589046  0.39693797  0.95472213    -0.40800
C2953       C  0.05840201  0.40989927  0.94547713     0.32400
C2954       C  0.07027674  0.41006894  0.93479018     0.14200
F2955       F  0.08640820  0.37184376  0.94056681    -0.13200
F2956       F  0.04927083  0.42238725  0.94661959    -0.13700
F2957       F  0.06339839  0.37136598  0.96153986    -0.16000
F2958       F  0.07244738  0.42269491  0.92600480    -0.14500
F2959       F  0.08098840  0.37878498  0.90639668    -0.14500
F2960       F  0.12736472  0.42054631  0.91620325    -0.15900
C2961       C  0.28757386  0.39520569  0.87720432     0.14100
C2962       C  0.28280852  0.41045046  0.87547689     0.01100
C2963       C  0.29385148  0.42216899  0.87582647     0.16100
C2964       C  0.30939882  0.41869802  0.87736771     0.25500
C2965       C  0.31421721  0.40341956  0.87878491    -0.40900
C2966       C  0.30309810  0.39173317  0.87894544     0.32500
C2967       C  0.26643176  0.41406261  0.87273099     0.01200
F2968       F  0.28957857  0.43702753  0.87459703    -0.13200
F2969       F  0.30720012  0.37691193  0.88092919    -0.13700
C2970       C  0.25502274  0.40871875  0.88275396     0.16100
C2971       C  0.23954652  0.41139868  0.87965386     0.25500
C2972       C  0.23514091  0.41978637  0.86658261    -0.40800
C2973       C  0.24665435  0.42555035  0.85684365     0.32400
C2974       C  0.26208981  0.42254845  0.85977993     0.14200
F2975       F  0.25885766  0.40080781  0.89556239    -0.13200
F2976       F  0.24304515  0.43417945  0.84445355    -0.13700
F2977       F  0.22894911  0.40519446  0.88917986    -0.16000
F2978       F  0.27279301  0.42757772  0.84967072    -0.14500
F2979       F  0.27723563  0.38359309  0.87674989    -0.14500
F2980       F  0.31974081  0.43029063  0.87684959    -0.15900
C2981       C  0.14921609  0.38057508  0.72510292     0.14100
C2982       C  0.14142520  0.39316208  0.73121858     0.01100
C2983       C  0.13167855  0.40172479  0.72180462     0.16100
C2984       C  0.12983862  0.39783224  0.70636026     0.25500
C2985       C  0.13789300  0.38538619  0.70004338    -0.40900
C2986       C  0.14753586  0.37673402  0.70964736     0.32500
C2987       C  0.14375108  0.39751544  0.74737737     0.01200
F2988       F  0.12387238  0.41380315  0.72763327    -0.13200
F2989       F  0.15585540  0.36492236  0.70401046    -0.13700
C2990       C  0.15288109  0.41020048  0.75107289     0.16100
C2991       C  0.15554076  0.41406445  0.76639326     0.25500
C2992       C  0.14902773  0.40530929  0.77827975    -0.40800
C2993       C  0.13977383  0.39263748  0.77447641     0.32400
C2994       C  0.13721004  0.38876916  0.75914305     0.14200
F2995       F  0.15943033  0.41868304  0.73980577    -0.13200
F2996       F  0.13367150  0.38360701  0.78555370    -0.13700
F2997       F  0.16430567  0.42650479  0.76956261    -0.16000
F2998       F  0.12840354  0.37641302  0.75574721    -0.14500
F2999       F  0.15879469  0.37225082  0.73404575    -0.14500
F3000       F  0.11994281  0.40606967  0.69770306    -0.15900
C3001       C  0.58771267  0.08471303  0.56933652     0.14100
C3002       C  0.59164506  0.07559741  0.55671880     0.01100
C3003       C  0.60571050  0.06791323  0.55663598     0.16100
C3004       C  0.61598487  0.06974953  0.56879432     0.25500
C3005       C  0.61233909  0.07933912  0.58125492    -0.40900
C3006       C  0.59792891  0.08655991  0.58152316     0.32500
C3007       C  0.58140390  0.07483310  0.54329085     0.01200
F3008       F  0.60969998  0.05904229  0.54451704    -0.13200
F3009       F  0.59395655  0.09603847  0.59316212    -0.13700
C3010       C  0.57920614  0.08787412  0.53424421     0.16100
C3011       C  0.56919403  0.08748038  0.52178009     0.25500
C3012       C  0.56105387  0.07399272  0.51816982    -0.40800
C3013       C  0.56357282  0.06081173  0.52713571     0.32400
C3014       C  0.57369505  0.06125299  0.53956452     0.14200
F3015       F  0.58680872  0.10103826  0.53751453    -0.13200
F3016       F  0.55587754  0.04761803  0.52425895    -0.13700
F3017       F  0.56747242  0.10037560  0.51331379    -0.16000
F3018       F  0.57561719  0.04855273  0.54827530    -0.14500
F3019       F  0.57404434  0.09207017  0.56969617    -0.14500
F3020       F  0.62949134  0.06212350  0.56834072    -0.15900
C3021       C  0.93295798  0.45174073  0.56722855     0.14100
C3022       C  0.92612767  0.44983678  0.55278264     0.01100
C3023       C  0.91963761  0.43561267  0.54899445     0.16100
C3024       C  0.91940475  0.42370611  0.55966199     0.25500
C3025       C  0.92592183  0.42568672  0.57430135    -0.40900
C3026       C  0.93301488  0.43975043  0.57781114     0.32500
C3027       C  0.92534708  0.46277814  0.54183833     0.01200
F3028       F  0.91337875  0.43327236  0.53494677    -0.13200
F3029       F  0.94009701  0.44194945  0.59147401    -0.13700
C3030       C  0.93869464  0.47054755  0.53729929     0.16100
C3031       C  0.93789679  0.48268106  0.52689955     0.25500
C3032       C  0.92370166  0.48719886  0.52064919    -0.40800
C3033       C  0.91032824  0.47945546  0.52538991     0.32400
C3034       C  0.91115914  0.46745245  0.53590407     0.14200
F3035       F  0.95259478  0.46615146  0.54266699    -0.13200
F3036       F  0.89638412  0.48327447  0.51970908    -0.13700
F3037       F  0.95108969  0.48991718  0.52294432    -0.16000
F3038       F  0.89801100  0.46044712  0.54039946    -0.14500
F3039       F  0.93916826  0.46539301  0.57130283    -0.14500
F3040       F  0.91219580  0.41050484  0.55578981    -0.15900
C3041       C  0.60259828  0.46424685  0.88135478     0.14100
C3042       C  0.58875354  0.46218376  0.88924202     0.01100
C3043       C  0.58627895  0.44866775  0.89751304     0.16100
C3044       C  0.59748819  0.43728806  0.89784640     0.25500
C3045       C  0.61141935  0.43925141  0.88989628    -0.40900
C3046       C  0.61386113  0.45291175  0.88168602     0.32500
C3047       C  0.57696845  0.47424877  0.88899913     0.01200
F3048       F  0.57291771  0.44645177  0.90516823    -0.13200
F3049       F  0.62694109  0.45517558  0.87359633    -0.13700
C3050       C  0.56899559  0.47752084  0.87545692     0.16100
C3051       C  0.55796556  0.48908765  0.87518299     0.25500
C3052       C  0.55476414  0.49766997  0.88850189    -0.40800
C3053       C  0.56285821  0.49427469  0.90207589     0.32400
C3054       C  0.57379635  0.48264268  0.90229714     0.14200
F3055       F  0.57177559  0.46934655  0.86253055    -0.13200
F3056       F  0.56042620  0.50234113  0.91513717    -0.13700
F3057       F  0.55034207  0.49171630  0.86189582    -0.16000
F3058       F  0.58153808  0.47974145  0.91546005    -0.14500
F3059       F  0.60523565  0.47733215  0.87341557    -0.14500
F3060       F  0.59479969  0.42451977  0.90625923    -0.15900
C3061       C  0.95863264  0.39560043  0.90216949     0.14100
C3062       C  0.95651241  0.40198091  0.91677737     0.01100
C3063       C  0.94287338  0.40979505  0.92004117     0.16100
C3064       C  0.93151437  0.41125590  0.90889080     0.25500
C3065       C  0.93358126  0.40492650  0.89421585    -0.40900
C3066       C  0.94727786  0.39708818  0.89094906     0.32500
C3067       C  0.96855813  0.40083002  0.92862613     0.01200
F3068       F  0.94053532  0.41598092  0.93411486    -0.13200
F3069       F  0.94956685  0.39057111  0.87702434    -0.13700
C3070       C  0.97530030  0.41414918  0.93451117     0.16100
C3071       C  0.98596045  0.41332373  0.94639229     0.25500
C3072       C  0.99012359  0.39907054  0.95273113    -0.40800
C3073       C  0.98359639  0.38566725  0.94646989     0.32400
C3074       C  0.97292433  0.38657160  0.93452463     0.14200
F3075       F  0.97157241  0.42803173  0.92866493    -0.13200
F3076       F  0.98736889  0.37165933  0.95195154    -0.13700
F3077       F  0.99218529  0.42657740  0.95160281    -0.16000
F3078       F  0.96653021  0.37353252  0.92898216    -0.14500
F3079       F  0.97180568  0.38814727  0.89870749    -0.14500
F3080       F  0.91869048  0.41928142  0.91235437    -0.15900
C3081       C  0.91493627  0.40175737  0.75297840     0.14100
C3082       C  0.90438525  0.40676891  0.74197526     0.01100
C3083       C  0.89146652  0.41506848  0.74661447     0.16100
C3084       C  0.88876786  0.41777493  0.76214900     0.25500
C3085       C  0.89894566  0.41215248  0.77328585    -0.40900
C3086       C  0.91225727  0.40442750  0.76853754     0.32500
C3087       C  0.90616174  0.40228990  0.72579697     0.01200
F3088       F  0.88130733  0.42026404  0.73607211    -0.13200
F3089       F  0.92215995  0.39854251  0.77894531    -0.13700
C3090       C  0.89585816  0.39180198  0.71931080     0.16100
C3091       C  0.89734985  0.38742620  0.70400831     0.25500
C3092       C  0.90914876  0.39355806  0.69489223    -0.40800
C3093       C  0.91950656  0.40406028  0.70144835     0.32400
C3094       C  0.91806390  0.40831736  0.71683750     0.14200
F3095       F  0.88438162  0.38572174  0.72788149    -0.13200
F3096       F  0.93122560  0.40993985  0.69308150    -0.13700
F3097       F  0.88694649  0.37754595  0.69801135    -0.16000
F3098       F  0.92816546  0.41843088  0.72297156    -0.14500
F3099       F  0.92738462  0.39352830  0.74869874    -0.14500
F3100       F  0.87612570  0.42577281  0.76630174    -0.15900
C3101       C  0.79034388  0.40353004  0.88071361     0.14100
C3102       C  0.77939122  0.40571690  0.86921461     0.01100
C3103       C  0.78418862  0.40882614  0.85423548     0.16100
C3104       C  0.79976994  0.40957644  0.85069472     0.25500
C3105       C  0.81096610  0.40674882  0.86204433    -0.40900
C3106       C  0.80597096  0.40384998  0.87717861     0.32500
C3107       C  0.76296248  0.40365657  0.87257567     0.01200
F3108       F  0.77371066  0.41110145  0.84297847    -0.13200
F3109       F  0.81604868  0.40070529  0.88854870    -0.13700
C3110       C  0.75494898  0.41435517  0.88145327     0.16100
C3111       C  0.73936624  0.41216276  0.88462049     0.25500
C3112       C  0.73163852  0.39914078  0.87904333    -0.40800
C3113       C  0.73978226  0.38850100  0.87008375     0.32400
C3114       C  0.75527851  0.39077212  0.86688403     0.14200
F3115       F  0.76221514  0.42694667  0.88695925    -0.13200
F3116       F  0.73270014  0.37605905  0.86404119    -0.13700
F3117       F  0.73197793  0.42255550  0.89346963    -0.16000
F3118       F  0.76287648  0.38028818  0.85830658    -0.14500
F3119       F  0.78586722  0.40046462  0.89529006    -0.14500
F3120       F  0.80371031  0.41328007  0.83613954    -0.15900
C3121       C  0.95483932  0.10277237  0.59506357     0.14100
C3122       C  0.95379899  0.08849031  0.58779304     0.01100
C3123       C  0.94026482  0.08461743  0.57999626     0.16100
C3124       C  0.92792342  0.09483307  0.57951440     0.25500
C3125       C  0.92896559  0.10925002  0.58665274    -0.40900
C3126       C  0.94258401  0.11309225  0.59445023     0.32500
C3127       C  0.96686150  0.07765337  0.58821349     0.01200
F3128       F  0.93901646  0.07089786  0.57282951    -0.13200
F3129       F  0.94394162  0.12670988  0.60178812    -0.13700
C3130       C  0.96990314  0.06905226  0.60143631     0.16100
C3131       C  0.98194531  0.05843824  0.60165618     0.25500
C3132       C  0.99122894  0.05622502  0.58859806    -0.40800
C3133       C  0.98823667  0.06513602  0.57544260     0.32400
C3134       C  0.97618435  0.07569300  0.57527689     0.14200
F3135       F  0.96092762  0.07067472  0.61402975    -0.13200
F3136       F  0.99701192  0.06371987  0.56268323    -0.13700
F3137       F  0.98414059  0.04998008  0.61449332    -0.16000
F3138       F  0.97360821  0.08406118  0.56244433    -0.14500
F3139       F  0.96782103  0.10678010  0.60263105    -0.14500
F3140       F  0.91514847  0.09078238  0.57162814    -0.15900
C3141       C  0.88213354  0.25493139  0.58135382     0.14100
C3142       C  0.89373366  0.25904214  0.59168400     0.01100
C3143       C  0.90269281  0.24762335  0.59845324     0.16100
C3144       C  0.89996348  0.23221710  0.59511849     0.25500
C3145       C  0.88821848  0.22797368  0.58486913    -0.40900
C3146       C  0.87939467  0.23952274  0.57794174     0.32500
C3147       C  0.89620497  0.27522063  0.59581992     0.01200
F3148       F  0.91383450  0.25140846  0.60862755    -0.13200
F3149       F  0.86827973  0.23593556  0.56767708    -0.13700
C3150       C  0.88648972  0.28234279  0.60642838     0.16100
C3151       C  0.88907199  0.29751930  0.61079467     0.25500
C3152       C  0.90134934  0.30586098  0.60447484    -0.40800
C3153       C  0.91096823  0.29871087  0.59369499     0.32400
C3154       C  0.90845518  0.28347009  0.58948230     0.14200
F3155       F  0.87458289  0.27450935  0.61266347    -0.13200
F3156       F  0.92310212  0.30629851  0.58760179    -0.13700
F3157       F  0.87934963  0.30414695  0.62093713    -0.16000
F3158       F  0.91799523  0.27672112  0.57924430    -0.14500
F3159       F  0.87348845  0.26587768  0.57456520    -0.14500
F3160       F  0.90839641  0.22147176  0.60246025    -0.15900
C3161       C  0.78724264  0.11774447  0.60128860     0.14100
C3162       C  0.77470766  0.12482964  0.59428753     0.01100
C3163       C  0.77723042  0.13641273  0.58346056     0.16100
C3164       C  0.79219650  0.14098191  0.57979963     0.25500
C3165       C  0.80486012  0.13404700  0.58700061    -0.40900
C3166       C  0.80217051  0.12231621  0.59774796     0.32500
C3167       C  0.75904041  0.12059142  0.59902638     0.01200
F3168       F  0.76518592  0.14330938  0.57649971    -0.13200
F3169       F  0.81392051  0.11571960  0.60543525    -0.13700
C3170       C  0.75135584  0.12945599  0.60996768     0.16100
C3171       C  0.73698189  0.12493611  0.61541204     0.25500
C3172       C  0.72999280  0.11149864  0.60987606    -0.40800
C3173       C  0.73771060  0.10268745  0.59880281     0.32400
C3174       C  0.75216199  0.10718045  0.59347878     0.14200
F3175       F  0.75791886  0.14239579  0.61554344    -0.13200
F3176       F  0.73150460  0.08946369  0.59349790    -0.13700
F3177       F  0.72978833  0.13391147  0.62584351    -0.16000
F3178       F  0.75953252  0.09837782  0.58301751    -0.14500
F3179       F  0.78496843  0.10668357  0.61195965    -0.14500
F3180       F  0.79427242  0.15204209  0.56909584    -0.15900
C3181       C  0.58549612  0.07898861  0.92863067     0.14100
C3182       C  0.59813477  0.08199447  0.91918866     0.01100
C3183       C  0.61159138  0.07345507  0.92097242     0.16100
C3184       C  0.61266868  0.06246732  0.93250237     0.25500
C3185       C  0.60024467  0.05982056  0.94243657    -0.40900
C3186       C  0.58651063  0.06796638  0.94016589     0.32500
C3187       C  0.59784815  0.09486467  0.90832392     0.01200
F3188       F  0.62377160  0.07593463  0.91161602    -0.13200
F3189       F  0.57426415  0.06576490  0.94950471    -0.13700
C3190       C  0.60749072  0.10745858  0.91084665     0.16100
C3191       C  0.60786175  0.11952570  0.90043671     0.25500
C3192       C  0.59859696  0.11917303  0.88726512    -0.40800
C3193       C  0.58877538  0.10661736  0.88483538     0.32400
C3194       C  0.58832501  0.09457659  0.89537965     0.14200
F3195       F  0.61661931  0.10800922  0.92342800    -0.13200
F3196       F  0.57949706  0.10609653  0.87237036    -0.13700
F3197       F  0.61776641  0.13124175  0.90295706    -0.16000
F3198       F  0.57885057  0.08251414  0.89282230    -0.14500
F3199       F  0.57241468  0.08720446  0.92711334    -0.14500
F3200       F  0.62585797  0.05440453  0.93388996    -0.15900
C3201       C  0.62092679  0.29566050  0.88421766     0.14100
C3202       C  0.62943189  0.28685138  0.87383336     0.01100
C3203       C  0.64227776  0.29327150  0.86663480     0.16100
C3204       C  0.64671775  0.30826409  0.86986089     0.25500
C3205       C  0.63833348  0.31715469  0.88035401    -0.40900
C3206       C  0.62527910  0.31076747  0.88738775     0.32500
C3207       C  0.62503225  0.27096085  0.87022732     0.01200
F3208       F  0.65058847  0.28492314  0.85650310    -0.13200
F3209       F  0.61696469  0.31899349  0.89760523    -0.13700
C3210       C  0.61911897  0.26741842  0.85572513     0.16100
C3211       C  0.61678317  0.25221224  0.85142849     0.25500
C3212       C  0.62043287  0.24024494  0.86155766    -0.40800
C3213       C  0.62578954  0.24387557  0.87635809     0.32400
C3214       C  0.62806609  0.25914345  0.88064153     0.14200
F3215       F  0.61584572  0.27874101  0.84562448    -0.13200
F3216       F  0.62959916  0.23268258  0.88640824    -0.13700
F3217       F  0.61085039  0.24923516  0.83737044    -0.16000
F3218       F  0.63390910  0.26237843  0.89468941    -0.14500
F3219       F  0.60837717  0.28965547  0.89117611    -0.14500
F3220       F  0.65898363  0.31419450  0.86235856    -0.15900
C3221       C  0.63754281  0.15261386  0.74684492     0.14100
C3222       C  0.62792710  0.14170219  0.73998798     0.01100
C3223       C  0.61459107  0.13698589  0.74760885     0.16100
C3224       C  0.61118789  0.14268673  0.76217499     0.25500
C3225       C  0.62104381  0.15328948  0.76931158    -0.40900
C3226       C  0.63409964  0.15844207  0.76136235     0.32500
C3227       C  0.63219233  0.13470897  0.72520610     0.01200
F3228       F  0.60513461  0.12646789  0.74113716    -0.13200
F3229       F  0.64395887  0.16851970  0.76791843    -0.13700
C3230       C  0.64494537  0.12501980  0.72434503     0.16100
C3231       C  0.64914411  0.11842329  0.71038098     0.25500
C3232       C  0.64062329  0.12141134  0.69704250    -0.40800
C3233       C  0.62771603  0.13098209  0.69798788     0.32400
C3234       C  0.62354346  0.13757781  0.71198091     0.14200
F3235       F  0.65320054  0.12179666  0.73711523    -0.13200
F3236       F  0.61948773  0.13444860  0.68527404    -0.13700
F3237       F  0.66133893  0.10883988  0.70998057    -0.16000
F3238       F  0.61127944  0.14706501  0.71257285    -0.14500
F3239       F  0.65040885  0.15743076  0.73954387    -0.14500
F3240       F  0.59823477  0.13782753  0.76928776    -0.15900
loop_ 
_geom_bond_atom_site_label_1 
_geom_bond_atom_site_label_2 
_geom_bond_distance 
_geom_bond_site_symmetry_2 
_ccdc_geom_bond_type 
N1            N2   1.322       .  A
N1            C5   1.342       .  A
N1           Cu9   2.065       .  S
N2            C3   1.347       .  A
N2           Cu8   2.079       .  S
C3            C4   1.387       .  A
C3            H6   1.081       .  S
C4            C5   1.383       .  A
C4         C3225   1.480       .  S
C5            H7   1.081       .  S
Cu8          N11   2.079       .  S
Cu9          N19   2.064       .  S
Cu10         N12   2.067       .  S
Cu10         N18   2.066       .  S
N11          N12   1.322       .  A
N11          C15   1.344       .  A
N12          C13   1.345       .  A
C13          C14   1.384       .  A
C13          H16   1.081       .  S
C14          C15   1.387       .  A
C14        C3212   1.482       .  S
C15          H17   1.081       .  S
N18          N19   1.321       .  A
N18          C22   1.343       .  A
N19          C20   1.344       .  A
C20          C21   1.384       .  A
C20          H23   1.081       .  S
C21          C22   1.384       .  A
C21        C3192   1.476       .  S
C22          H24   1.081       .  S
N25          N26   1.322       .  A
N25          C29   1.344       .  A
N25         Cu33   2.084       .  S
N26          C27   1.347       .  A
N26         Cu32   2.079       .  S
C27          C28   1.387       .  A
C27          H30   1.081       .  S
C28          C29   1.387       .  A
C28        C3165   1.487       .  S
C29          H31   1.081       .  S
Cu32         N35   2.079       .  S
Cu33         N43   2.085       .  S
Cu34         N36   2.077       .  S
Cu34         N42   2.078       .  S
N35          N36   1.322       .  A
N35          C39   1.346       .  A
N36          C37   1.344       .  A
C37          C38   1.386       .  A
C37          H40   1.081       .  S
C38          C39   1.387       .  A
C38        C3145   1.485       .  S
C39          H41   1.081       .  S
N42          N43   1.321       .  A
N42          C46   1.346       .  A
N43          C44   1.348       .  A
C44          C45   1.389       .  A
C44          H47   1.081       .  S
C45          C46   1.387       .  A
C45        C3125   1.490       .  S
C46          H48   1.081       .  S
N49          N50   1.319       .  A
N49          C53   1.345       .  A
N49         Cu57   2.073       .  S
N50          C51   1.341       .  A
N50         Cu56   2.063       .  S
C51          C52   1.390       .  A
C51          H54   1.079       .  S
C52          C53   1.392       .  A
C52        C3105   1.494       .  S
C53          H55   1.079       .  S
Cu56         N59   2.064       .  S
Cu57         N67   2.074       .  S
Cu58         N60   2.069       .  S
Cu58         N66   2.070       .  S
N59          N60   1.321       .  A
N59          C63   1.342       .  A
N60          C61   1.345       .  A
C61          C62   1.386       .  A
C61          H64   1.081       .  S
C62          C63   1.384       .  A
C62        C3085   1.478       .  S
C63          H65   1.081       .  S
N66          N67   1.322       .  A
N66          C70   1.345       .  A
N67          C68   1.344       .  A
C68          C69   1.385       .  A
C68          H71   1.081       .  S
C69          C70   1.385       .  A
C69        C3065   1.481       .  S
C70          H72   1.081       .  S
N73          N74   1.320       .  A
N73          C77   1.346       .  A
N73         Cu81   2.070       .  S
N74          C75   1.343       .  A
N74         Cu80   2.066       .  S
C75          C76   1.385       .  A
C75          H78   1.082       .  S
C76          C77   1.386       .  A
C76        C3205   1.481       .  S
C77          H79   1.081       .  S
Cu80         N83   2.066       .  S
Cu81         N91   2.071       .  S
Cu82         N84   2.080       .  S
Cu82         N90   2.081       .  S
N83          N84   1.321       .  A
N83          C87   1.342       .  A
N84          C85   1.347       .  A
C85          C86   1.388       .  A
C85          H88   1.081       .  S
C86          C87   1.384       .  A
C86        C3112   1.483       .  S
C87          H89   1.081       .  S
N90          N91   1.322       .  A
N90          C94   1.346       .  A
N91          C92   1.343       .  A
C92          C93   1.385       .  A
C92          H95   1.080       .  S
C93          C94   1.388       .  A
C93        C3045   1.485       .  S
C94          H96   1.080       .  S
N97          N98   1.322       .  A
N97         C101   1.345       .  A
N97        Cu105   2.074       .  S
N98          C99   1.345       .  A
N98        Cu104   2.074       .  S
C99         C100   1.385       .  A
C99         H102   1.082       .  S
C100        C101   1.385       .  A
C100       C3152   1.481       .  S
C101        H103   1.081       .  S
Cu104       N107   2.074       .  S
Cu105       N115   2.074       .  S
Cu106       N108   2.067       .  S
Cu106       N114   2.068       .  S
N107        N108   1.321       .  A
N107        C111   1.344       .  A
N108        C109   1.344       .  A
C109        C110   1.384       .  A
C109        H112   1.081       .  S
C110        C111   1.385       .  A
C110       C3092   1.479       .  S
C111        H113   1.082       .  S
N114        N115   1.320       .  A
N114        C118   1.343       .  A
N115        C116   1.345       .  A
C116        C117   1.388       .  A
C116        H119   1.080       .  S
C117        C118   1.387       .  A
C117       C3025   1.486       .  S
C118        H120   1.080       .  S
N121        N122   1.321       .  A
N121        C125   1.344       .  A
N121       Cu129   2.070       .  S
N122        C123   1.345       .  A
N122       Cu128   2.073       .  S
C123        C124   1.386       .  A
C123        H126   1.081       .  S
C124        C125   1.385       .  A
C124       C3172   1.481       .  S
C125        H127   1.081       .  S
Cu128       N131   2.073       .  S
Cu129       N139   2.070       .  S
Cu130       N132   2.074       .  S
Cu130       N138   2.074       .  S
N131        N132   1.322       .  A
N131        C135   1.344       .  A
N132        C133   1.345       .  A
C133        C134   1.385       .  A
C133        H136   1.081       .  S
C134        C135   1.384       .  A
C134       C3232   1.479       .  S
C135        H137   1.082       .  S
N138        N139   1.321       .  A
N138        C142   1.345       .  A
N139        C140   1.344       .  A
C140        C141   1.386       .  A
C140        H143   1.080       .  S
C141        C142   1.388       .  A
C141       C3005   1.484       .  S
C142        H144   1.080       .  S
N145        N146   1.320       .  A
N145        C149   1.344       .  A
N145       Cu153   2.068       .  S
N146        C147   1.343       .  A
N146       Cu152   2.071       .  S
C147        C148   1.388       .  A
C147        H150   1.080       .  S
C148        C149   1.388       .  A
C148       C2972   1.487       .  S
C149        H151   1.080       .  S
Cu152       N155   2.071       .  S
Cu153       N163   2.068       .  S
Cu154       N156   2.072       .  S
Cu154       N162   2.072       .  S
N155        N156   1.321       .  A
N155        C159   1.344       .  A
N156        C157   1.344       .  A
C157        C158   1.386       .  A
C157        H160   1.081       .  S
C158        C159   1.386       .  A
C158       C2992   1.482       .  S
C159        H161   1.081       .  S
N162        N163   1.321       .  A
N162        C166   1.345       .  A
N163        C164   1.343       .  A
C164        C165   1.386       .  A
C164        H167   1.079       .  S
C165        C166   1.386       .  A
C165       C2945   1.482       .  S
C166        H168   1.078       .  S
N169        N170   1.323       .  A
N169        C173   1.345       .  A
N169       Cu177   2.075       .  S
N170        C171   1.346       .  A
N170       Cu176   2.084       .  S
C171        C172   1.387       .  A
C171        H174   1.081       .  S
C172        C173   1.385       .  A
C172       C2932   1.485       .  S
C173        H175   1.081       .  S
Cu176       N179   2.084       .  S
Cu177       N187   2.074       .  S
Cu178       N180   2.060       .  S
Cu178       N186   2.060       .  S
N179        N180   1.321       .  A
N179        C183   1.347       .  A
N180        C181   1.343       .  A
C181        C182   1.382       .  A
C181        H184   1.082       .  S
C182        C183   1.389       .  A
C182       C2912   1.481       .  S
C183        H185   1.081       .  S
N186        N187   1.320       .  A
N186        C190   1.342       .  A
N187        C188   1.346       .  A
C188        C189   1.387       .  A
C188        H191   1.081       .  S
C189        C190   1.383       .  A
C189       C2892   1.480       .  S
C190        H192   1.081       .  S
N193        N194   1.319       .  A
N193        C197   1.343       .  A
N193       Cu201   2.060       .  S
N194        C195   1.344       .  A
N194       Cu200   2.067       .  S
C195        C196   1.386       .  A
C195        H198   1.081       .  S
C196        C197   1.383       .  A
C196       C2872   1.477       .  S
C197        H199   1.081       .  S
Cu200       N203   2.067       .  S
Cu201       N211   2.060       .  S
Cu202       N204   2.080       .  S
Cu202       N210   2.079       .  S
N203        N204   1.322       .  A
N203        C207   1.342       .  A
N204        C205   1.347       .  A
C205        C206   1.387       .  A
C205        H208   1.081       .  S
C206        C207   1.382       .  A
C206       C2845   1.479       .  S
C207        H209   1.081       .  S
N210        N211   1.321       .  A
N210        C214   1.347       .  A
N211        C212   1.340       .  A
C212        C213   1.384       .  A
C212        H215   1.080       .  S
C213        C214   1.390       .  A
C213       C2832   1.485       .  S
C214        H216   1.080       .  S
N217        N218   1.321       .  A
N217        C221   1.345       .  A
N217       Cu225   2.073       .  S
N218        C219   1.343       .  A
N218       Cu224   2.068       .  S
C219        C220   1.384       .  A
C219        H222   1.081       .  S
C220        C221   1.386       .  A
C220       C2852   1.480       .  S
C221        H223   1.081       .  S
Cu224       N227   2.068       .  S
Cu225       N235   2.073       .  S
Cu226       N228   2.073       .  S
Cu226       N234   2.073       .  S
N227        N228   1.321       .  A
N227        C231   1.344       .  A
N228        C229   1.345       .  A
C229        C230   1.387       .  A
C229        H232   1.081       .  S
C230        C231   1.386       .  A
C230       C2965   1.483       .  S
C231        H233   1.081       .  S
N234        N235   1.321       .  A
N234        C238   1.343       .  A
N235        C236   1.345       .  A
C236        C237   1.387       .  A
C236        H239   1.081       .  S
C237        C238   1.386       .  A
C237       C2805   1.484       .  S
C238        H240   1.081       .  S
N241        N242   1.320       .  A
N241        C245   1.347       .  A
N241       Cu249   2.080       .  S
N242        C243   1.342       .  A
N242       Cu248   2.060       .  S
C243        C244   1.385       .  A
C243        H246   1.081       .  S
C244        C245   1.390       .  A
C244       C2925   1.485       .  S
C245        H247   1.081       .  S
Cu248       N251   2.060       .  S
Cu249       N259   2.081       .  S
Cu250       N252   2.079       .  S
Cu250       N258   2.080       .  S
N251        N252   1.321       .  A
N251        C255   1.341       .  A
N252        C253   1.347       .  A
C253        C254   1.388       .  A
C253        H256   1.081       .  S
C254        C255   1.383       .  A
C254       C2865   1.480       .  S
C255        H257   1.081       .  S
N258        N259   1.323       .  A
N258        C262   1.345       .  A
N259        C260   1.345       .  A
C260        C261   1.387       .  A
C260        H263   1.081       .  S
C261        C262   1.387       .  A
C261       C2792   1.486       .  S
C262        H264   1.081       .  S
N265        N266   1.321       .  A
N265        C269   1.348       .  A
N265       Cu273   2.083       .  S
N266        C267   1.341       .  A
N266       Cu272   2.066       .  S
C267        C268   1.386       .  A
C267        H270   1.081       .  S
C268        C269   1.391       .  A
C268       C2905   1.488       .  S
C269        H271   1.080       .  S
Cu272       N275   2.066       .  S
Cu273       N283   2.084       .  S
Cu274       N276   2.078       .  S
Cu274       N282   2.079       .  S
N275        N276   1.320       .  A
N275        C279   1.344       .  A
N276        C277   1.346       .  A
C277        C278   1.388       .  A
C277        H280   1.081       .  S
C278        C279   1.386       .  A
C278       C2985   1.485       .  S
C279        H281   1.081       .  S
N282        N283   1.321       .  A
N282        C286   1.345       .  A
N283        C284   1.346       .  A
C284        C285   1.392       .  A
C284        H287   1.079       .  S
C285        C286   1.391       .  A
C285       C2765   1.497       .  S
C286        H288   1.079       .  S
N289        N290   1.321       .  A
N289        C293   1.348       .  A
N289       Cu297   2.087       .  S
N290        C291   1.343       .  A
N290       Cu296   2.066       .  S
C291        C292   1.385       .  A
C291        H294   1.080       .  S
C292        C293   1.391       .  A
C292       C2732   1.489       .  S
C293        H295   1.081       .  S
Cu296       N299   2.065       .  S
Cu297       N307   2.087       .  S
Cu298       N300   2.076       .  S
Cu298       N306   2.076       .  S
N299        N300   1.320       .  A
N299        C303   1.342       .  A
N300        C301   1.347       .  A
C301        C302   1.387       .  A
C301        H304   1.082       .  S
C302        C303   1.384       .  A
C302       C2745   1.481       .  S
C303        H305   1.081       .  S
N306        N307   1.322       .  A
N306        C310   1.344       .  A
N307        C308   1.346       .  A
C308        C309   1.390       .  A
C308        H311   1.080       .  S
C309        C310   1.387       .  A
C309       C2705   1.491       .  S
C310        H312   1.080       .  S
N313        N314   1.321       .  A
N313        C317   1.346       .  A
N313       Cu321   2.085       .  S
N314        C315   1.344       .  A
N314       Cu320   2.068       .  S
C315        C316   1.386       .  A
C315        H318   1.081       .  S
C316        C317   1.389       .  A
C316       C2692   1.487       .  S
C317        H319   1.081       .  S
Cu320       N323   2.068       .  S
Cu321       N331   2.086       .  S
Cu322       N324   2.086       .  S
Cu322       N330   2.087       .  S
N323        N324   1.321       .  A
N323        C327   1.344       .  A
N324        C325   1.347       .  A
C325        C326   1.391       .  A
C325        H328   1.081       .  S
C326        C327   1.386       .  A
C326       C2665   1.489       .  S
C327        H329   1.081       .  S
N330        N331   1.322       .  A
N330        C334   1.346       .  A
N331        C332   1.347       .  A
C332        C333   1.392       .  A
C332        H335   1.080       .  S
C333        C334   1.391       .  A
C333       C2652   1.498       .  S
C334        H336   1.080       .  S
N337        N338   1.319       .  A
N337        C341   1.346       .  A
N337       Cu345   2.071       .  S
N338        C339   1.339       .  A
N338       Cu344   2.051       .  S
C339        C340   1.383       .  A
C339        H342   1.081       .  S
C340        C341   1.389       .  A
C340       C2632   1.481       .  S
C341        H343   1.081       .  S
Cu344       N347   2.051       .  S
Cu345       N355   2.073       .  S
Cu346       N348   2.078       .  S
Cu346       N354   2.079       .  S
N347        N348   1.320       .  A
N347        C351   1.339       .  A
N348        C349   1.348       .  A
C349        C350   1.388       .  A
C349        H352   1.081       .  S
C350        C351   1.381       .  A
C350       C2605   1.477       .  S
C351        H353   1.081       .  S
N354        N355   1.324       .  A
N354        C358   1.345       .  A
N355        C356   1.343       .  A
C356        C357   1.384       .  A
C356        H359   1.081       .  S
C357        C358   1.386       .  A
C357       C2592   1.481       .  S
C358        H360   1.081       .  S
N361        N362   1.320       .  A
N361        C365   1.343       .  A
N361       Cu369   2.057       .  S
N362        C363   1.345       .  A
N362       Cu368   2.081       .  S
C363        C364   1.389       .  A
C363        H366   1.081       .  S
C364        C365   1.383       .  A
C364       C2612   1.482       .  S
C365        H367   1.080       .  S
Cu368       N371   2.082       .  S
Cu369       N379   2.057       .  S
Cu370       N372   2.080       .  S
Cu370       N378   2.079       .  S
N371        N372   1.323       .  A
N371        C375   1.347       .  A
N372        C373   1.345       .  A
C373        C374   1.386       .  A
C373        H376   1.081       .  S
C374        C375   1.388       .  A
C374       C2725   1.487       .  S
C375        H377   1.081       .  S
N378        N379   1.321       .  A
N378        C382   1.347       .  A
N379        C380   1.341       .  A
C380        C381   1.380       .  A
C380        H383   1.080       .  S
C381        C382   1.386       .  A
C381       C2565   1.474       .  S
C382        H384   1.081       .  S
N385        N386   1.320       .  A
N385        C389   1.344       .  A
N385       Cu393   2.070       .  S
N386        C387   1.343       .  A
N386       Cu392   2.061       .  S
C387        C388   1.384       .  A
C387        H390   1.082       .  S
C388        C389   1.386       .  A
C388       C2625   1.478       .  S
C389        H391   1.081       .  S
Cu392       N395   2.061       .  S
Cu393       N403   2.071       .  S
Cu394       N396   2.081       .  S
Cu394       N402   2.081       .  S
N395        N396   1.321       .  A
N395        C399   1.341       .  A
N396        C397   1.347       .  A
C397        C398   1.390       .  A
C397        H400   1.081       .  S
C398        C399   1.384       .  A
C398       C2685   1.484       .  S
C399        H401   1.081       .  S
N402        N403   1.323       .  A
N402        C406   1.345       .  A
N403        C404   1.344       .  A
C404        C405   1.384       .  A
C404        H407   1.081       .  S
C405        C406   1.386       .  A
C405       C2552   1.481       .  S
C406        H408   1.081       .  S
N409        N410   1.323       .  A
N409        C413   1.345       .  A
N409       Cu417   2.078       .  S
N410        C411   1.347       .  A
N410       Cu416   2.083       .  S
C411        C412   1.386       .  A
C411        H414   1.081       .  S
C412        C413   1.385       .  A
C412       C2752   1.483       .  S
C413        H415   1.081       .  S
Cu416       N419   2.083       .  S
Cu417       N427   2.078       .  S
Cu418       N420   2.072       .  S
Cu418       N426   2.071       .  S
N419        N420   1.322       .  A
N419        C423   1.347       .  A
N420        C421   1.344       .  A
C421        C422   1.385       .  A
C421        H424   1.081       .  S
C422        C423   1.388       .  A
C422       C2525   1.486       .  S
C423        H425   1.081       .  S
N426        N427   1.320       .  A
N426        C430   1.345       .  A
N427        C428   1.346       .  A
C428        C429   1.389       .  A
C428        H431   1.081       .  S
C429        C430   1.386       .  A
C429       C2672   1.487       .  S
C430        H432   1.081       .  S
N433        N434   1.322       .  A
N433        C437   1.342       .  A
N433       Cu441   2.058       .  S
N434        C435   1.347       .  A
N434       Cu440   2.085       .  S
C435        C436   1.386       .  A
C435        H438   1.081       .  S
C436        C437   1.379       .  A
C436       C2485   1.473       .  S
C437        H439   1.082       .  S
Cu440       N443   2.086       .  S
Cu441       N451   2.058       .  S
Cu442       N444   2.070       .  S
Cu442       N450   2.070       .  S
N443        N444   1.323       .  A
N443        C447   1.346       .  A
N444        C445   1.344       .  A
C445        C446   1.384       .  A
C445        H448   1.082       .  S
C446        C447   1.388       .  A
C446       C2505   1.484       .  S
C447        H449   1.081       .  S
N450        N451   1.320       .  A
N450        C454   1.344       .  A
N451        C452   1.342       .  A
C452        C453   1.384       .  A
C452        H455   1.081       .  S
C453        C454   1.386       .  A
C453       C2465   1.478       .  S
C454        H456   1.081       .  S
N457        N458   1.322       .  A
N457        C461   1.345       .  A
N457       Cu465   2.074       .  S
N458        C459   1.343       .  A
N458       Cu464   2.070       .  S
C459        C460   1.383       .  A
C459        H462   1.081       .  S
C460        C461   1.384       .  A
C460       C2445   1.477       .  S
C461        H463   1.081       .  S
Cu464       N467   2.070       .  S
Cu465       N475   2.074       .  S
Cu466       N468   2.066       .  S
Cu466       N474   2.065       .  S
N467        N468   1.320       .  A
N467        C471   1.344       .  A
N468        C469   1.344       .  A
C469        C470   1.386       .  A
C469        H472   1.081       .  S
C470        C471   1.386       .  A
C470       C2425   1.482       .  S
C471        H473   1.081       .  S
N474        N475   1.321       .  A
N474        C478   1.342       .  A
N475        C476   1.346       .  A
C476        C477   1.386       .  A
C476        H479   1.081       .  S
C477        C478   1.383       .  A
C477       C2405   1.479       .  S
C478        H480   1.081       .  S
N481        N482   1.321       .  A
N481        C485   1.347       .  A
N481       Cu489   2.082       .  S
N482        C483   1.343       .  A
N482       Cu488   2.063       .  S
C483        C484   1.383       .  A
C483        H486   1.081       .  S
C484        C485   1.387       .  A
C484       C2372   1.480       .  S
C485        H487   1.081       .  S
Cu488       N491   2.062       .  S
Cu489       N499   2.083       .  S
Cu490       N492   2.078       .  S
Cu490       N498   2.080       .  S
N491        N492   1.321       .  A
N491        C495   1.341       .  A
N492        C493   1.348       .  A
C493        C494   1.387       .  A
C493        H496   1.081       .  S
C494        C495   1.381       .  A
C494       C2392   1.476       .  S
C495        H497   1.081       .  S
N498        N499   1.323       .  A
N498        C502   1.344       .  A
N499        C500   1.346       .  A
C500        C501   1.386       .  A
C500        H503   1.081       .  S
C501        C502   1.385       .  A
C501       C2352   1.484       .  S
C502        H504   1.081       .  S
N505        N506   1.319       .  A
N505        C509   1.344       .  A
N505       Cu513   2.075       .  S
N506        C507   1.343       .  A
N506       Cu512   2.056       .  S
C507        C508   1.386       .  A
C507        H510   1.081       .  S
C508        C509   1.389       .  A
C508       C2385   1.485       .  S
C509        H511   1.081       .  S
Cu512       N515   2.056       .  S
Cu513       N523   2.077       .  S
Cu514       N516   2.077       .  S
Cu514       N522   2.078       .  S
N515        N516   1.320       .  A
N515        C519   1.338       .  A
N516        C517   1.348       .  A
C517        C518   1.391       .  A
C517        H520   1.081       .  S
C518        C519   1.384       .  A
C518       C2492   1.485       .  S
C519        H521   1.081       .  S
N522        N523   1.323       .  A
N522        C526   1.344       .  A
N523        C524   1.345       .  A
C524        C525   1.385       .  A
C524        H527   1.081       .  S
C525        C526   1.385       .  A
C525       C2325   1.481       .  S
C526        H528   1.081       .  S
N529        N530   1.323       .  A
N529        C533   1.348       .  A
N529       Cu537   2.089       .  S
N530        C531   1.343       .  A
N530       Cu536   2.066       .  S
C531        C532   1.381       .  A
C531        H534   1.081       .  S
C532        C533   1.387       .  A
C532       C2365   1.479       .  S
C533        H535   1.081       .  S
Cu536       N539   2.065       .  S
Cu537       N547   2.089       .  S
Cu538       N540   2.068       .  S
Cu538       N546   2.069       .  S
N539        N540   1.320       .  A
N539        C543   1.343       .  A
N540        C541   1.344       .  A
C541        C542   1.386       .  A
C541        H544   1.081       .  S
C542        C543   1.385       .  A
C542       C2452   1.481       .  S
C543        H545   1.081       .  S
N546        N547   1.322       .  A
N546        C550   1.343       .  A
N547        C548   1.348       .  A
C548        C549   1.389       .  A
C548        H551   1.081       .  S
C549        C550   1.384       .  A
C549       C2312   1.486       .  S
C550        H552   1.081       .  S
N553        N554   1.322       .  A
N553        C557   1.344       .  A
N553       Cu561   2.071       .  S
N554        C555   1.347       .  A
N554       Cu560   2.081       .  S
C555        C556   1.386       .  A
C555        H558   1.081       .  S
C556        C557   1.384       .  A
C556       C2432   1.480       .  S
C557        H559   1.082       .  S
Cu560       N563   2.083       .  S
Cu561       N571   2.071       .  S
Cu562       N564   2.081       .  S
Cu562       N570   2.080       .  S
N563        N564   1.322       .  A
N563        C567   1.347       .  A
N564        C565   1.344       .  A
C565        C566   1.387       .  A
C565        H568   1.080       .  S
C566        C567   1.388       .  A
C566       C2285   1.489       .  S
C567        H569   1.081       .  S
N570        N571   1.321       .  A
N570        C574   1.348       .  A
N571        C572   1.343       .  A
C572        C573   1.385       .  A
C572        H575   1.081       .  S
C573        C574   1.388       .  A
C573       C2512   1.485       .  S
C574        H576   1.081       .  S
N577        N578   1.321       .  A
N577        C581   1.348       .  A
N577       Cu585   2.076       .  S
N578        C579   1.343       .  A
N578       Cu584   2.078       .  S
C579        C580   1.387       .  A
C579        H582   1.081       .  S
C580        C581   1.388       .  A
C580       C2272   1.486       .  S
C581        H583   1.081       .  S
Cu584       N587   2.078       .  S
Cu585       N595   2.076       .  S
Cu586       N588   2.072       .  S
Cu586       N594   2.072       .  S
N587        N588   1.321       .  A
N587        C591   1.345       .  A
N588        C589   1.346       .  A
C589        C590   1.385       .  A
C589        H592   1.081       .  S
C590        C591   1.386       .  A
C590       C2245   1.482       .  S
C591        H593   1.081       .  S
N594        N595   1.322       .  A
N594        C598   1.345       .  A
N595        C596   1.343       .  A
C596        C597   1.385       .  A
C596        H599   1.081       .  S
C597        C598   1.385       .  A
C597       C2232   1.481       .  S
C598        H600   1.081       .  S
N601        N602   1.323       .  A
N601        C605   1.350       .  A
N601       Cu609   2.099       .  S
N602        C603   1.346       .  A
N602       Cu608   2.081       .  S
C603        C604   1.388       .  A
C603        H606   1.081       .  S
C604        C605   1.393       .  A
C604       C2205   1.496       .  S
C605        H607   1.081       .  S
Cu608       N611   2.081       .  S
Cu609       N619   2.099       .  S
Cu610       N612   2.070       .  S
Cu610       N618   2.070       .  S
N611        N612   1.320       .  A
N611        C615   1.346       .  A
N612        C613   1.345       .  A
C613        C614   1.387       .  A
C613        H616   1.081       .  S
C614        C615   1.389       .  A
C614       C2185   1.487       .  S
C615        H617   1.081       .  S
N618        N619   1.323       .  A
N618        C622   1.344       .  A
N619        C620   1.350       .  A
C620        C621   1.391       .  A
C620        H623   1.081       .  S
C621        C622   1.384       .  A
C621       C2165   1.488       .  S
C622        H624   1.081       .  S
N625        N626   1.322       .  A
N625        C629   1.347       .  A
N625       Cu633   2.091       .  S
N626        C627   1.345       .  A
N626       Cu632   2.073       .  S
C627        C628   1.386       .  A
C627        H630   1.081       .  S
C628        C629   1.391       .  A
C628       C2145   1.491       .  S
C629        H631   1.081       .  S
Cu632       N635   2.073       .  S
Cu633       N643   2.091       .  S
Cu634       N636   2.077       .  S
Cu634       N642   2.078       .  S
N635        N636   1.320       .  A
N635        C639   1.344       .  A
N636        C637   1.346       .  A
C637        C638   1.390       .  A
C637        H640   1.080       .  S
C638        C639   1.389       .  A
C638       C2132   1.491       .  S
C639        H641   1.080       .  S
N642        N643   1.322       .  A
N642        C646   1.344       .  A
N643        C644   1.348       .  A
C644        C645   1.392       .  A
C644        H647   1.081       .  S
C645        C646   1.389       .  A
C645       C2112   1.496       .  S
C646        H648   1.080       .  S
N649        N650   1.322       .  A
N649        C653   1.346       .  A
N649       Cu657   2.075       .  S
N650        C651   1.345       .  A
N650       Cu656   2.084       .  S
C651        C652   1.387       .  A
C651        H654   1.081       .  S
C652        C653   1.387       .  A
C652       C2252   1.487       .  S
C653        H655   1.081       .  S
Cu656       N659   2.084       .  S
Cu657       N667   2.074       .  S
Cu658       N660   2.072       .  S
Cu658       N666   2.072       .  S
N659        N660   1.322       .  A
N659        C663   1.347       .  A
N660        C661   1.345       .  A
C661        C662   1.384       .  A
C661        H664   1.081       .  S
C662        C663   1.386       .  A
C662       C2152   1.481       .  S
C663        H665   1.082       .  S
N666        N667   1.322       .  A
N666        C670   1.344       .  A
N667        C668   1.345       .  A
C668        C669   1.384       .  A
C668        H671   1.081       .  S
C669        C670   1.384       .  A
C669       C2085   1.478       .  S
C670        H672   1.082       .  S
N673        N674   1.320       .  A
N673        C677   1.343       .  A
N673       Cu681   2.065       .  S
N674        C675   1.348       .  A
N674       Cu680   2.089       .  S
C675        C676   1.392       .  A
C675        H678   1.081       .  S
C676        C677   1.387       .  A
C676       C2192   1.491       .  S
C677        H679   1.080       .  S
Cu680       N683   2.090       .  S
Cu681       N691   2.065       .  S
Cu682       N684   2.083       .  S
Cu682       N690   2.082       .  S
N683        N684   1.323       .  A
N683        C687   1.348       .  A
N684        C685   1.345       .  A
C685        C686   1.386       .  A
C685        H688   1.081       .  S
C686        C687   1.388       .  A
C686       C2065   1.488       .  S
C687        H689   1.081       .  S
N690        N691   1.321       .  A
N690        C694   1.347       .  A
N691        C692   1.343       .  A
C692        C693   1.383       .  A
C692        H695   1.081       .  S
C693        C694   1.387       .  A
C693       C2125   1.480       .  S
C694        H696   1.081       .  S
N697        N698   1.322       .  A
N697        C701   1.348       .  A
N697       Cu705   2.077       .  S
N698        C699   1.345       .  A
N698       Cu704   2.081       .  S
C699        C700   1.386       .  A
C699        H702   1.081       .  S
C700        C701   1.387       .  A
C700       C2265   1.485       .  S
C701        H703   1.081       .  S
Cu704       N707   2.082       .  S
Cu705       N715   2.077       .  S
Cu706       N708   2.089       .  S
Cu706       N714   2.089       .  S
N707        N708   1.322       .  A
N707        C711   1.347       .  A
N708        C709   1.347       .  A
C709        C710   1.391       .  A
C709        H712   1.081       .  S
C710        C711   1.389       .  A
C710       C2212   1.495       .  S
C711        H713   1.080       .  S
N714        N715   1.323       .  A
N714        C718   1.348       .  A
N715        C716   1.345       .  A
C716        C717   1.385       .  A
C716        H719   1.081       .  S
C717        C718   1.388       .  A
C717       C2045   1.486       .  S
C718        H720   1.081       .  S
N721        N722   1.320       .  A
N721        C725   1.344       .  A
N721       Cu729   2.060       .  S
N722        C723   1.344       .  A
N722       Cu728   2.070       .  S
C723        C724   1.386       .  A
C723        H726   1.081       .  S
C724        C725   1.384       .  A
C724       C2025   1.479       .  S
C725        H727   1.081       .  S
Cu728       N731   2.071       .  S
Cu729       N739   2.061       .  S
Cu730       N732   2.087       .  S
Cu730       N738   2.086       .  S
N731        N732   1.322       .  A
N731        C735   1.343       .  A
N732        C733   1.348       .  A
C733        C734   1.390       .  A
C733        H736   1.081       .  S
C734        C735   1.385       .  A
C734       C2005   1.487       .  S
C735        H737   1.081       .  S
N738        N739   1.322       .  A
N738        C742   1.347       .  A
N739        C740   1.341       .  A
C740        C741   1.382       .  A
C740        H743   1.081       .  S
C741        C742   1.388       .  A
C741       C1992   1.481       .  S
C742        H744   1.081       .  S
N745        N746   1.320       .  A
N745        C749   1.348       .  A
N745       Cu753   2.087       .  S
N746        C747   1.341       .  A
N746       Cu752   2.058       .  S
C747        C748   1.384       .  A
C747        H750   1.080       .  S
C748        C749   1.391       .  A
C748       C1972   1.486       .  S
C749        H751   1.081       .  S
Cu752       N755   2.058       .  S
Cu753       N763   2.088       .  S
Cu754       N756   2.083       .  S
Cu754       N762   2.085       .  S
N755        N756   1.320       .  A
N755        C759   1.342       .  A
N756        C757   1.347       .  A
C757        C758   1.389       .  A
C757        H760   1.082       .  S
C758        C759   1.383       .  A
C758       C1945   1.483       .  S
C759        H761   1.081       .  S
N762        N763   1.324       .  A
N762        C766   1.346       .  A
N763        C764   1.347       .  A
C764        C765   1.387       .  A
C764        H767   1.081       .  S
C765        C766   1.387       .  A
C765       C1925   1.488       .  S
C766        H768   1.081       .  S
N769        N770   1.322       .  A
N769        C773   1.345       .  A
N769       Cu777   2.073       .  S
N770        C771   1.343       .  A
N770       Cu776   2.067       .  S
C771        C772   1.383       .  A
C771        H774   1.081       .  S
C772        C773   1.385       .  A
C772       C1905   1.479       .  S
C773        H775   1.081       .  S
Cu776       N779   2.067       .  S
Cu777       N787   2.073       .  S
Cu778       N780   2.066       .  S
Cu778       N786   2.066       .  S
N779        N780   1.320       .  A
N779        C783   1.342       .  A
N780        C781   1.345       .  A
C781        C782   1.386       .  A
C781        H784   1.081       .  S
C782        C783   1.386       .  A
C782       C1892   1.482       .  S
C783        H785   1.081       .  S
N786        N787   1.322       .  A
N786        C790   1.342       .  A
N787        C788   1.345       .  A
C788        C789   1.385       .  A
C788        H791   1.081       .  S
C789        C790   1.382       .  A
C789       C1872   1.477       .  S
C790        H792   1.081       .  S
N793        N794   1.320       .  A
N793        C797   1.343       .  A
N793       Cu801   2.065       .  S
N794        C795   1.344       .  A
N794       Cu800   2.072       .  S
C795        C796   1.387       .  A
C795        H798   1.081       .  S
C796        C797   1.386       .  A
C796       C1912   1.482       .  S
C797        H799   1.081       .  S
Cu800       N803   2.072       .  S
Cu801       N811   2.065       .  S
Cu802       N804   2.072       .  S
Cu802       N810   2.073       .  S
N803        N804   1.320       .  A
N803        C807   1.342       .  A
N804        C805   1.345       .  A
C805        C806   1.390       .  A
C805        H808   1.080       .  S
C806        C807   1.389       .  A
C806       C2032   1.490       .  S
C807        H809   1.080       .  S
N810        N811   1.321       .  A
N810        C814   1.344       .  A
N811        C812   1.343       .  A
C812        C813   1.385       .  A
C812        H815   1.081       .  S
C813        C814   1.387       .  A
C813       C1852   1.483       .  S
C814        H816   1.081       .  S
N817        N818   1.321       .  A
N817        C821   1.344       .  A
N817       Cu825   2.064       .  S
N818        C819   1.344       .  A
N818       Cu824   2.068       .  S
C819        C820   1.382       .  A
C819        H822   1.082       .  S
C820        C821   1.381       .  A
C820       C1885   1.470       .  S
C821        H823   1.081       .  S
Cu824       N827   2.069       .  S
Cu825       N835   2.065       .  S
Cu826       N828   2.082       .  S
Cu826       N834   2.082       .  S
N827        N828   1.321       .  A
N827        C831   1.341       .  A
N828        C829   1.348       .  A
C829        C830   1.391       .  A
C829        H832   1.080       .  S
C830        C831   1.387       .  A
C830       C1965   1.491       .  S
C831        H833   1.079       .  S
N834        N835   1.322       .  A
N834        C838   1.346       .  A
N835        C836   1.343       .  A
C836        C837   1.384       .  A
C836        H839   1.081       .  S
C837        C838   1.389       .  A
C837       C1825   1.484       .  S
C838        H840   1.081       .  S
N841        N842   1.319       .  A
N841        C845   1.344       .  A
N841       Cu849   2.069       .  S
N842        C843   1.344       .  A
N842       Cu848   2.063       .  S
C843        C844   1.385       .  A
C843        H846   1.078       .  S
C844        C845   1.387       .  A
C844       C1952   1.482       .  S
C845        H847   1.078       .  S
Cu848       N851   2.064       .  S
Cu849       N859   2.070       .  S
Cu850       N852   2.094       .  S
Cu850       N858   2.094       .  S
N851        N852   1.322       .  A
N851        C855   1.343       .  A
N852        C853   1.349       .  A
C853        C854   1.389       .  A
C853        H856   1.081       .  S
C854        C855   1.382       .  A
C854       C1812   1.484       .  S
C855        H857   1.081       .  S
N858        N859   1.323       .  A
N858        C862   1.348       .  A
N859        C860   1.344       .  A
C860        C861   1.385       .  A
C860        H863   1.081       .  S
C861        C862   1.390       .  A
C861       C2012   1.488       .  S
C862        H864   1.081       .  S
N865        N866   1.321       .  A
N865        C869   1.349       .  A
N865       Cu873   2.079       .  S
N866        C867   1.339       .  A
N866       Cu872   2.056       .  S
C867        C868   1.380       .  A
C867        H870   1.081       .  S
C868        C869   1.388       .  A
C868       C1765   1.478       .  S
C869        H871   1.081       .  S
Cu872       N875   2.056       .  S
Cu873       N883   2.080       .  S
Cu874       N876   2.072       .  S
Cu874       N882   2.074       .  S
N875        N876   1.320       .  A
N875        C879   1.342       .  A
N876        C877   1.346       .  A
C877        C878   1.385       .  A
C877        H880   1.082       .  S
C878        C879   1.381       .  A
C878       C1792   1.474       .  S
C879        H881   1.081       .  S
N882        N883   1.323       .  A
N882        C886   1.344       .  A
N883        C884   1.345       .  A
C884        C885   1.386       .  A
C884        H887   1.081       .  S
C885        C886   1.384       .  A
C885       C1752   1.482       .  S
C886        H888   1.081       .  S
N889        N890   1.323       .  A
N889        C893   1.346       .  A
N889       Cu897   2.087       .  S
N890        C891   1.345       .  A
N890       Cu896   2.074       .  S
C891        C892   1.384       .  A
C891        H894   1.081       .  S
C892        C893   1.386       .  A
C892       C1725   1.483       .  S
C893        H895   1.082       .  S
Cu896       N899   2.074       .  S
Cu897       N907   2.087       .  S
Cu898       N900   2.078       .  S
Cu898       N906   2.079       .  S
N899        N900   1.321       .  A
N899        C903   1.345       .  A
N900        C901   1.345       .  A
C901        C902   1.389       .  A
C901        H904   1.080       .  S
C902        C903   1.388       .  A
C902       C1705   1.489       .  S
C903        H905   1.081       .  S
N906        N907   1.322       .  A
N906        C910   1.345       .  A
N907        C908   1.349       .  A
C908        C909   1.389       .  A
C908        H911   1.081       .  S
C909        C910   1.387       .  A
C909       C1685   1.490       .  S
C910        H912   1.081       .  S
N913        N914   1.321       .  A
N913        C917   1.346       .  A
N913       Cu921   2.080       .  S
N914        C915   1.345       .  A
N914       Cu920   2.072       .  S
C915        C916   1.386       .  A
C915        H918   1.081       .  S
C916        C917   1.387       .  A
C916       C1645   1.485       .  S
C917        H919   1.081       .  S
Cu920       N923   2.072       .  S
Cu921       N931   2.080       .  S
Cu922       N924   2.073       .  S
Cu922       N930   2.073       .  S
N923        N924   1.321       .  A
N923        C927   1.343       .  A
N924        C925   1.346       .  A
C925        C926   1.387       .  A
C925        H928   1.081       .  S
C926        C927   1.386       .  A
C926       C1665   1.484       .  S
C927        H929   1.080       .  S
N930        N931   1.322       .  A
N930        C934   1.345       .  A
N931        C932   1.344       .  A
C932        C933   1.388       .  A
C932        H935   1.081       .  S
C933        C934   1.388       .  A
C933       C1632   1.488       .  S
C934        H936   1.081       .  S
N937        N938   1.321       .  A
N937        C941   1.346       .  A
N937       Cu945   2.071       .  S
N938        C939   1.343       .  A
N938       Cu944   2.071       .  S
C939        C940   1.386       .  A
C939        H942   1.081       .  S
C940        C941   1.386       .  A
C940       C1672   1.483       .  S
C941        H943   1.081       .  S
Cu944       N947   2.071       .  S
Cu945       N955   2.072       .  S
Cu946       N948   2.072       .  S
Cu946       N954   2.072       .  S
N947        N948   1.321       .  A
N947        C951   1.343       .  A
N948        C949   1.345       .  A
C949        C950   1.385       .  A
C949        H952   1.081       .  S
C950        C951   1.384       .  A
C950       C1785   1.479       .  S
C951        H953   1.082       .  S
N954        N955   1.321       .  A
N954        C958   1.344       .  A
N955        C956   1.343       .  A
C956        C957   1.386       .  A
C956        H959   1.081       .  S
C957        C958   1.387       .  A
C957       C1605   1.484       .  S
C958        H960   1.081       .  S
N961        N962   1.322       .  A
N961        C965   1.349       .  A
N961       Cu969   2.091       .  S
N962        C963   1.342       .  A
N962       Cu968   2.065       .  S
C963        C964   1.382       .  A
C963        H966   1.082       .  S
C964        C965   1.389       .  A
C964       C1652   1.482       .  S
C965        H967   1.081       .  S
Cu968       N971   2.064       .  S
Cu969       N979   2.092       .  S
Cu970       N972   2.076       .  S
Cu970       N978   2.077       .  S
N971        N972   1.320       .  A
N971        C975   1.344       .  A
N972        C973   1.346       .  A
C973        C974   1.388       .  A
C973        H976   1.081       .  S
C974        C975   1.385       .  A
C974       C1732   1.483       .  S
C975        H977   1.082       .  S
N978        N979   1.322       .  A
N978        C982   1.344       .  A
N979        C980   1.348       .  A
C980        C981   1.392       .  A
C980        H983   1.079       .  S
C981        C982   1.387       .  A
C981       C1585   1.493       .  S
C982        H984   1.079       .  S
N985        N986   1.320       .  A
N985        C989   1.345       .  A
N985       Cu993   2.070       .  S
N986        C987   1.344       .  A
N986       Cu992   2.071       .  S
C987        C988   1.387       .  A
C987        H990   1.081       .  S
C988        C989   1.387       .  A
C988       C1712   1.485       .  S
C989        H991   1.081       .  S
Cu992       N995   2.071       .  S
Cu993      N1003   2.071       .  S
Cu994       N996   2.071       .  S
Cu994      N1002   2.072       .  S
N995        N996   1.321       .  A
N995        C999   1.342       .  A
N996        C997   1.346       .  A
C997        C998   1.388       .  A
C997       H1000   1.081       .  S
C998        C999   1.386       .  A
C998       C1772   1.485       .  S
C999       H1001   1.081       .  S
N1002      N1003   1.321       .  A
N1002      C1006   1.344       .  A
N1003      C1004   1.344       .  A
C1004      C1005   1.386       .  A
C1004      H1007   1.081       .  S
C1005      C1006   1.387       .  A
C1005      C1572   1.484       .  S
C1006      H1008   1.080       .  S
N1009      N1010   1.320       .  A
N1009      C1013   1.345       .  A
N1009     Cu1017   2.075       .  S
N1010      C1011   1.340       .  A
N1010     Cu1016   2.057       .  S
C1011      C1012   1.385       .  A
C1011      H1014   1.080       .  S
C1012      C1013   1.389       .  A
C1012      C1532   1.483       .  S
C1013      H1015   1.081       .  S
Cu1016     N1019   2.057       .  S
Cu1017     N1027   2.076       .  S
Cu1018     N1020   2.074       .  S
Cu1018     N1026   2.074       .  S
N1019      N1020   1.319       .  A
N1019      C1023   1.340       .  A
N1020      C1021   1.345       .  A
C1021      C1022   1.391       .  A
C1021      H1024   1.080       .  S
C1022      C1023   1.387       .  A
C1022      C1552   1.488       .  S
C1023      H1025   1.080       .  S
N1026      N1027   1.322       .  A
N1026      C1030   1.344       .  A
N1027      C1028   1.345       .  A
C1028      C1029   1.387       .  A
C1028      H1031   1.081       .  S
C1029      C1030   1.386       .  A
C1029      C1505   1.486       .  S
C1030      H1032   1.081       .  S
N1033      N1034   1.322       .  A
N1033      C1037   1.347       .  A
N1033     Cu1041   2.079       .  S
N1034      C1035   1.343       .  A
N1034     Cu1040   2.070       .  S
C1035      C1036   1.384       .  A
C1035      H1038   1.081       .  S
C1036      C1037   1.388       .  A
C1036      C1485   1.483       .  S
C1037      H1039   1.081       .  S
Cu1040     N1043   2.070       .  S
Cu1041     N1051   2.079       .  S
Cu1042     N1044   2.067       .  S
Cu1042     N1050   2.067       .  S
N1043      N1044   1.320       .  A
N1043      C1047   1.344       .  A
N1044      C1045   1.345       .  A
C1045      C1046   1.386       .  A
C1045      H1048   1.081       .  S
C1046      C1047   1.386       .  A
C1046      C1472   1.483       .  S
C1047      H1049   1.081       .  S
N1050      N1051   1.322       .  A
N1050      C1054   1.343       .  A
N1051      C1052   1.345       .  A
C1052      C1053   1.386       .  A
C1052      H1055   1.081       .  S
C1053      C1054   1.383       .  A
C1053      C1452   1.478       .  S
C1054      H1056   1.081       .  S
N1057      N1058   1.321       .  A
N1057      C1061   1.344       .  A
N1057     Cu1065   2.069       .  S
N1058      C1059   1.346       .  A
N1058     Cu1064   2.076       .  S
C1059      C1060   1.386       .  A
C1059      H1062   1.081       .  S
C1060      C1061   1.384       .  A
C1060      C1405   1.479       .  S
C1061      H1063   1.082       .  S
Cu1064     N1067   2.077       .  S
Cu1065     N1075   2.070       .  S
Cu1066     N1068   2.091       .  S
Cu1066     N1074   2.091       .  S
N1067      N1068   1.323       .  A
N1067      C1071   1.345       .  A
N1068      C1069   1.349       .  A
C1069      C1070   1.388       .  A
C1069      H1072   1.081       .  S
C1070      C1071   1.384       .  A
C1070      C1432   1.484       .  S
C1071      H1073   1.081       .  S
N1074      N1075   1.322       .  A
N1074      C1078   1.348       .  A
N1075      C1076   1.344       .  A
C1076      C1077   1.384       .  A
C1076      H1079   1.082       .  S
C1077      C1078   1.389       .  A
C1077      C1385   1.485       .  S
C1078      H1080   1.082       .  S
N1081      N1082   1.321       .  A
N1081      C1085   1.346       .  A
N1081     Cu1089   2.079       .  S
N1082      C1083   1.342       .  A
N1082     Cu1088   2.062       .  S
C1083      C1084   1.384       .  A
C1083      H1086   1.081       .  S
C1084      C1085   1.389       .  A
C1084      C1492   1.484       .  S
C1085      H1087   1.081       .  S
Cu1088     N1091   2.063       .  S
Cu1089     N1099   2.079       .  S
Cu1090     N1092   2.072       .  S
Cu1090     N1098   2.073       .  S
N1091      N1092   1.321       .  A
N1091      C1095   1.342       .  A
N1092      C1093   1.346       .  A
C1093      C1094   1.386       .  A
C1093      H1096   1.081       .  S
C1094      C1095   1.382       .  A
C1094      C1412   1.477       .  S
C1095      H1097   1.082       .  S
N1098      N1099   1.322       .  A
N1098      C1102   1.343       .  A
N1099      C1100   1.345       .  A
C1100      C1101   1.388       .  A
C1100      H1103   1.080       .  S
C1101      C1102   1.386       .  A
C1101      C1372   1.486       .  S
C1102      H1104   1.081       .  S
N1105      N1106   1.321       .  A
N1105      C1109   1.348       .  A
N1105     Cu1113   2.094       .  S
N1106      C1107   1.343       .  A
N1106     Cu1112   2.061       .  S
C1107      C1108   1.384       .  A
C1107      H1110   1.082       .  S
C1108      C1109   1.392       .  A
C1108      C1425   1.489       .  S
C1109      H1111   1.081       .  S
Cu1112     N1115   2.061       .  S
Cu1113     N1123   2.094       .  S
Cu1114     N1116   2.067       .  S
Cu1114     N1122   2.068       .  S
N1115      N1116   1.320       .  A
N1115      C1119   1.342       .  A
N1116      C1117   1.345       .  A
C1117      C1118   1.386       .  A
C1117      H1120   1.081       .  S
C1118      C1119   1.383       .  A
C1118      C1525   1.478       .  S
C1119      H1121   1.082       .  S
N1122      N1123   1.323       .  A
N1122      C1126   1.344       .  A
N1123      C1124   1.347       .  A
C1124      C1125   1.388       .  A
C1124      H1127   1.081       .  S
C1125      C1126   1.383       .  A
C1125      C1345   1.483       .  S
C1126      H1128   1.081       .  S
N1129      N1130   1.321       .  A
N1129      C1133   1.348       .  A
N1129     Cu1137   2.082       .  S
N1130      C1131   1.341       .  A
N1130     Cu1136   2.061       .  S
C1131      C1132   1.382       .  A
C1131      H1134   1.082       .  S
C1132      C1133   1.388       .  A
C1132      C1465   1.480       .  S
C1133      H1135   1.081       .  S
Cu1136     N1139   2.061       .  S
Cu1137     N1147   2.082       .  S
Cu1138     N1140   2.067       .  S
Cu1138     N1146   2.068       .  S
N1139      N1140   1.320       .  A
N1139      C1143   1.341       .  A
N1140      C1141   1.345       .  A
C1141      C1142   1.384       .  A
C1141      H1144   1.081       .  S
C1142      C1143   1.382       .  A
C1142      C1545   1.473       .  S
C1143      H1145   1.082       .  S
N1146      N1147   1.323       .  A
N1146      C1150   1.343       .  A
N1147      C1148   1.345       .  A
C1148      C1149   1.385       .  A
C1148      H1151   1.081       .  S
C1149      C1150   1.382       .  A
C1149      C1332   1.478       .  S
C1150      H1152   1.081       .  S
O1153     Cu1161   2.004       .  S
O1153      C1163   1.277       .  A
O1154     Cu1161   2.002       .  S
O1154      C1164   1.278       .  A
O1155     Cu1161   1.993       .  S
O1155      C1165   1.276       .  A
O1156     Cu1161   1.994       .  S
O1156      C1166   1.276       .  A
O1157     Cu1162   2.018       .  S
O1157      C1166   1.279       .  A
O1158     Cu1162   2.015       .  S
O1158      C1165   1.279       .  A
O1159     Cu1162   2.006       .  S
O1159      C1164   1.277       .  A
O1160     Cu1162   2.008       .  S
O1160      C1163   1.278       .  A
Cu1161    Cu1162   2.368       .  S
C1163      C1612   1.484       .  S
C1164      C2092   1.482       .  S
C1165      C1325   1.485       .  S
C1166      C1845   1.481       .  S
O1167     Cu1175   2.015       .  S
O1167      C1177   1.279       .  A
O1168     Cu1175   2.006       .  S
O1168      C1178   1.278       .  A
O1169     Cu1175   2.003       .  S
O1169      C1179   1.277       .  A
O1170     Cu1175   2.004       .  S
O1170      C1180   1.277       .  A
O1171     Cu1176   2.027       .  S
O1171      C1180   1.280       .  A
O1172     Cu1176   2.029       .  S
O1172      C1179   1.280       .  A
O1173     Cu1176   2.011       .  S
O1173      C1178   1.278       .  A
O1174     Cu1176   2.006       .  S
O1174      C1177   1.278       .  A
Cu1175    Cu1176   2.367       .  S
C1177      C1352   1.490       .  S
C1178      C2545   1.481       .  S
C1179      C2772   1.483       .  S
C1180      C2052   1.491       .  S
O1181     Cu1189   1.998       .  S
O1181      C1191   1.277       .  A
O1182     Cu1189   1.998       .  S
O1182      C1192   1.277       .  A
O1183     Cu1189   2.015       .  S
O1183      C1193   1.279       .  A
O1184     Cu1189   2.017       .  S
O1184      C1194   1.279       .  A
O1185     Cu1190   2.013       .  S
O1185      C1194   1.278       .  A
O1186     Cu1190   2.011       .  S
O1186      C1193   1.278       .  A
O1187     Cu1190   2.017       .  S
O1187      C1192   1.279       .  A
O1188     Cu1190   2.015       .  S
O1188      C1191   1.279       .  A
Cu1189    Cu1190   2.365       .  S
C1191      C3012   1.486       .  S
C1192      C1365   1.488       .  S
C1193      C2785   1.489       .  S
C1194      C1592   1.494       .  S
O1195     Cu1203   2.013       .  S
O1195      C1205   1.279       .  A
O1196     Cu1203   2.012       .  S
O1196      C1206   1.279       .  A
O1197     Cu1203   2.001       .  S
O1197      C1207   1.277       .  A
O1198     Cu1203   2.005       .  S
O1198      C1208   1.277       .  A
O1199     Cu1204   2.010       .  S
O1199      C1208   1.279       .  A
O1200     Cu1204   2.009       .  S
O1200      C1207   1.278       .  A
O1201     Cu1204   2.003       .  S
O1201      C1206   1.277       .  A
O1202     Cu1204   2.005       .  S
O1202      C1205   1.277       .  A
Cu1203    Cu1204   2.365       .  S
C1205      C2332   1.487       .  S
C1206      C1565   1.488       .  S
C1207      C1832   1.486       .  S
C1208      C3032   1.488       .  S
O1209     Cu1217   2.013       .  S
O1209      C1219   1.279       .  A
O1210     Cu1217   2.006       .  S
O1210      C1220   1.278       .  A
O1211     Cu1217   2.015       .  S
O1211      C1221   1.278       .  A
O1212     Cu1217   2.011       .  S
O1212      C1222   1.278       .  A
O1213     Cu1218   2.017       .  S
O1213      C1222   1.279       .  A
O1214     Cu1218   2.021       .  S
O1214      C1221   1.280       .  A
O1215     Cu1218   2.017       .  S
O1215      C1220   1.279       .  A
O1216     Cu1218   2.015       .  S
O1216      C1219   1.279       .  A
Cu1217    Cu1218   2.365       .  S
C1219      C1805   1.490       .  S
C1220      C2532   1.492       .  S
C1221      C2072   1.494       .  S
C1222      C2292   1.486       .  S
O1223     Cu1231   2.012       .  S
O1223      C1233   1.279       .  A
O1224     Cu1231   2.012       .  S
O1224      C1234   1.279       .  A
O1225     Cu1231   2.010       .  S
O1225      C1235   1.278       .  A
O1226     Cu1231   2.010       .  S
O1226      C1236   1.278       .  A
O1227     Cu1232   2.005       .  S
O1227      C1236   1.278       .  A
O1228     Cu1232   2.004       .  S
O1228      C1235   1.277       .  A
O1229     Cu1232   2.005       .  S
O1229      C1234   1.278       .  A
O1230     Cu1232   2.012       .  S
O1230      C1233   1.278       .  A
Cu1231    Cu1232   2.367       .  S
C1233      C2305   1.492       .  S
C1234      C2812   1.487       .  S
C1235      C2572   1.477       .  S
C1236      C3052   1.487       .  S
O1237     Cu1245   2.018       .  S
O1237      C1247   1.279   1_455  A
O1238     Cu1245   2.022       .  S
O1238      C1248   1.279       .  A
O1239     Cu1245   2.019       .  S
O1239      C1249   1.279   1_455  A
O1240     Cu1245   2.014       .  S
O1240      C1250   1.279       .  A
O1241     Cu1246   2.022       .  S
O1241      C1250   1.280       .  A
O1242     Cu1246   2.023       .  S
O1242      C1249   1.280   1_455  A
O1243     Cu1246   2.019       .  S
O1243      C1248   1.279       .  A
O1244     Cu1246   2.017       .  S
O1244      C1247   1.279   1_455  A
Cu1245    Cu1246   2.362       .  S
C1247      C1932   1.494   1_545  S
C1248      C1392   1.494       .  S
C1249      C1692   1.498       .  S
C1250      C2172   1.496   1_545  S
O1251     Cu1259   2.010       .  S
O1251      C1261   1.278       .  A
O1252     Cu1259   2.011       .  S
O1252      C1262   1.278       .  A
O1253     Cu1259   2.038       .  S
O1253      C1263   1.282       .  A
O1254     Cu1259   2.038       .  S
O1254      C1264   1.282   1_545  A
O1255     Cu1260   2.009       .  S
O1255      C1264   1.278   1_545  A
O1256     Cu1260   2.011       .  S
O1256      C1263   1.278       .  A
O1257     Cu1260   1.999       .  S
O1257      C1262   1.277       .  A
O1258     Cu1260   1.997       .  S
O1258      C1261   1.277       .  A
Cu1259    Cu1260   2.364       .  S
C1261      C2472   1.486   1_445  S
C1262      C2885   1.486       .  S
C1263      C3132   1.496   1_455  S
C1264      C2645   1.496       .  S
O1265     Cu1273   2.019       .  S
O1265      C1275   1.280       .  A
O1266     Cu1273   2.026   1_554  S
O1266      C1276   1.280       .  A
O1267     Cu1273   2.004       .  S
O1267      C1277   1.277       .  A
O1268     Cu1273   2.003   1_554  S
O1268      C1278   1.277       .  A
O1269     Cu1274   2.009   1_554  S
O1269      C1278   1.278       .  A
O1270     Cu1274   2.010       .  S
O1270      C1277   1.279       .  A
O1271     Cu1274   2.000   1_554  S
O1271      C1276   1.277       .  A
O1272     Cu1274   1.995       .  S
O1272      C1275   1.276       .  A
Cu1273    Cu1274   2.365       .  S
C1275      C2825   1.488       .  S
C1276      C2105   1.493   1_545  S
C1277      C2712   1.487   1_545  S
C1278      C1445   1.486       .  S
O1279     Cu1287   2.023   1_554  S
O1279      C1289   1.280       .  A
O1280     Cu1287   2.020       .  S
O1280      C1290   1.280       .  A
O1281     Cu1287   2.004       .  S
O1281      C1291   1.277       .  A
O1282     Cu1287   2.011   1_554  S
O1282      C1292   1.278       .  A
O1283     Cu1288   2.003   1_554  S
O1283      C1292   1.277       .  A
O1284     Cu1288   1.998       .  S
O1284      C1291   1.277       .  A
O1285     Cu1288   1.998       .  S
O1285      C1290   1.277       .  A
O1286     Cu1288   1.996   1_554  S
O1286      C1289   1.276       .  A
Cu1287    Cu1288   2.367       .  S
C1289      C1512   1.490       .  S
C1290      C3072   1.490   1_455  S
C1291      C2952   1.479       .  S
C1292      C1745   1.478   1_455  S
O1293     Cu1301   2.013       .  S
O1293      C1303   1.279       .  A
O1294     Cu1301   2.015       .  S
O1294      C1304   1.279       .  A
O1295     Cu1301   1.993       .  S
O1295      C1305   1.275       .  A
O1296     Cu1301   1.992       .  S
O1296      C1306   1.276   1_556  A
O1297     Cu1302   2.014       .  S
O1297      C1306   1.279   1_556  A
O1298     Cu1302   2.011       .  S
O1298      C1305   1.279       .  A
O1299     Cu1302   2.004       .  S
O1299      C1304   1.277       .  A
O1300     Cu1302   2.000       .  S
O1300      C1303   1.276       .  A
Cu1301    Cu1302   2.366       .  S
C1303      C2412   1.487   1_545  S
C1304      C1625   1.489   1_556  S
C1305      C3185   1.478       .  S
C1306      C1985   1.486   1_545  S
O1307     Cu1315   2.019       .  S
O1307      C1317   1.279       .  A
O1308     Cu1315   2.017   1_554  S
O1308      C1318   1.279       .  A
O1309     Cu1315   2.016   1_554  S
O1309      C1319   1.279       .  A
O1310     Cu1315   2.014       .  S
O1310      C1320   1.279       .  A
O1311     Cu1316   1.991       .  S
O1311      C1320   1.276       .  A
O1312     Cu1316   1.991   1_554  S
O1312      C1319   1.276       .  A
O1313     Cu1316   1.992   1_554  S
O1313      C1318   1.276       .  A
O1314     Cu1316   1.996       .  S
O1314      C1317   1.276       .  A
Cu1315    Cu1316   2.366       .  S
C1317      C2345   1.485   1_455  S
C1318      C2225   1.485       .  S
C1319      C1865   1.485   1_455  S
C1320      C2585   1.486       .  S
C1321      C1322   1.403       .  A
C1321      C1326   1.399       .  A
C1321      F1339   1.358       .  S
C1322      C1323   1.402       .  A
C1322      C1327   1.476       .  S
C1323      C1324   1.396       .  A
C1323      F1328   1.358       .  S
C1324      C1325   1.412       .  A
C1324      F1340   1.358       .  S
C1325      C1326   1.410       .  A
C1326      F1329   1.358       .  S
C1327      C1330   1.404       .  A
C1327      C1334   1.403       .  A
C1330      C1331   1.398       .  A
C1330      F1335   1.358       .  S
C1331      C1332   1.407       .  A
C1331      F1337   1.358       .  S
C1332      C1333   1.409       .  A
C1333      C1334   1.398       .  A
C1333      F1336   1.357       .  S
C1334      F1338   1.358       .  S
C1341      C1342   1.407       .  A
C1341      C1346   1.401       .  A
C1341      F1359   1.358       .  S
C1342      C1343   1.406       .  A
C1342      C1347   1.486       .  S
C1343      C1344   1.399       .  A
C1343      F1348   1.358       .  S
C1344      C1345   1.407       .  A
C1344      F1360   1.357       .  S
C1345      C1346   1.409       .  A
C1346      F1349   1.358       .  S
C1347      C1350   1.404       .  A
C1347      C1354   1.405       .  A
C1350      C1351   1.399       .  A
C1350      F1355   1.358       .  S
C1351      C1352   1.412       .  A
C1351      F1357   1.358       .  S
C1352      C1353   1.412       .  A
C1353      C1354   1.400       .  A
C1353      F1356   1.358       .  S
C1354      F1358   1.358       .  S
C1361      C1362   1.403       .  A
C1361      C1366   1.401       .  A
C1361      F1379   1.358       .  S
C1362      C1363   1.402       .  A
C1362      C1367   1.478       .  S
C1363      C1364   1.396       .  A
C1363      F1368   1.358       .  S
C1364      C1365   1.413       .  A
C1364      F1380   1.358       .  S
C1365      C1366   1.412       .  A
C1366      F1369   1.358       .  S
C1367      C1370   1.402       .  A
C1367      C1374   1.403       .  A
C1370      C1371   1.399       .  A
C1370      F1375   1.358       .  S
C1371      C1372   1.411       .  A
C1371      F1377   1.357       .  S
C1372      C1373   1.410       .  A
C1373      C1374   1.398       .  A
C1373      F1376   1.357       .  S
C1374      F1378   1.358       .  S
C1381      C1382   1.405       .  A
C1381      C1386   1.401       .  A
C1381      F1399   1.358       .  S
C1382      C1383   1.405       .  A
C1382      C1387   1.485       .  S
C1383      C1384   1.402       .  A
C1383      F1388   1.358       .  S
C1384      C1385   1.408       .  A
C1384      F1400   1.357       .  S
C1385      C1386   1.409       .  A
C1386      F1389   1.358       .  S
C1387      C1390   1.404       .  A
C1387      C1394   1.404       .  A
C1390      C1391   1.403       .  A
C1390      F1395   1.358       .  S
C1391      C1392   1.413       .  A
C1391      F1397   1.358       .  S
C1392      C1393   1.412       .  A
C1393      C1394   1.401       .  A
C1393      F1396   1.357       .  S
C1394      F1398   1.358       .  S
C1401      C1402   1.406       .  A
C1401      C1406   1.398       .  A
C1401      F1419   1.358       .  S
C1402      C1403   1.405       .  A
C1402      C1407   1.481       .  S
C1403      C1404   1.400       .  A
C1403      F1408   1.358       .  S
C1404      C1405   1.408       .  A
C1404      F1420   1.358       .  S
C1405      C1406   1.406       .  A
C1406      F1409   1.358       .  S
C1407      C1410   1.406       .  A
C1407      C1414   1.405       .  A
C1410      C1411   1.400       .  A
C1410      F1415   1.358       .  S
C1411      C1412   1.406       .  A
C1411      F1417   1.358       .  S
C1412      C1413   1.406       .  A
C1413      C1414   1.397       .  A
C1413      F1416   1.358       .  S
C1414      F1418   1.358       .  S
C1421      C1422   1.405       .  A
C1421      C1426   1.401       .  A
C1421      F1439   1.358       .  S
C1422      C1423   1.404       .  A
C1422      C1427   1.484       .  S
C1423      C1424   1.401       .  A
C1423      F1428   1.358       .  S
C1424      C1425   1.412       .  A
C1424      F1440   1.357       .  S
C1425      C1426   1.409       .  A
C1426      F1429   1.357       .  S
C1427      C1430   1.405       .  A
C1427      C1434   1.405       .  A
C1430      C1431   1.401       .  A
C1430      F1435   1.358       .  S
C1431      C1432   1.407       .  A
C1431      F1437   1.357       .  S
C1432      C1433   1.409       .  A
C1433      C1434   1.401       .  A
C1433      F1436   1.358       .  S
C1434      F1438   1.358       .  S
C1441      C1442   1.402       .  A
C1441      C1446   1.398       .  A
C1441      F1459   1.358       .  S
C1442      C1443   1.401       .  A
C1442      C1447   1.475       .  S
C1443      C1444   1.398       .  A
C1443      F1448   1.358       .  S
C1444      C1445   1.413       .  A
C1444      F1460   1.358       .  S
C1445      C1446   1.411       .  A
C1446      F1449   1.358       .  S
C1447      C1450   1.403       .  A
C1447      C1454   1.403       .  A
C1450      C1451   1.398       .  A
C1450      F1455   1.358       .  S
C1451      C1452   1.407       .  A
C1451      F1457   1.358       .  S
C1452      C1453   1.409       .  A
C1453      C1454   1.399       .  A
C1453      F1456   1.358       .  S
C1454      F1458   1.358       .  S
C1461      C1462   1.402       .  A
C1461      C1466   1.396       .  A
C1461      F1479   1.358       .  S
C1462      C1463   1.404       .  A
C1462      C1467   1.476       .  S
C1463      C1464   1.402       .  A
C1463      F1468   1.358       .  S
C1464      C1465   1.408       .  A
C1464      F1480   1.357       .  S
C1465      C1466   1.408       .  A
C1466      F1469   1.358       .  S
C1467      C1470   1.403       .  A
C1467      C1474   1.402       .  A
C1470      C1471   1.400       .  A
C1470      F1475   1.358       .  S
C1471      C1472   1.410       .  A
C1471      F1477   1.357       .  S
C1472      C1473   1.409       .  A
C1473      C1474   1.397       .  A
C1473      F1476   1.357       .  S
C1474      F1478   1.358       .  S
C1481      C1482   1.403       .  A
C1481      C1486   1.399       .  A
C1481      F1499   1.358       .  S
C1482      C1483   1.403       .  A
C1482      C1487   1.478       .  S
C1483      C1484   1.399       .  A
C1483      F1488   1.358       .  S
C1484      C1485   1.409       .  A
C1484      F1500   1.357       .  S
C1485      C1486   1.410       .  A
C1486      F1489   1.358       .  S
C1487      C1490   1.402       .  A
C1487      C1494   1.404       .  A
C1490      C1491   1.398       .  A
C1490      F1495   1.358       .  S
C1491      C1492   1.411       .  A
C1491      F1497   1.357       .  S
C1492      C1493   1.409       .  A
C1493      C1494   1.399       .  A
C1493      F1496   1.357       .  S
C1494      F1498   1.358       .  S
C1501      C1502   1.403       .  A
C1501      C1506   1.399       .  A
C1501      F1519   1.358       .  S
C1502      C1503   1.403       .  A
C1502      C1507   1.478       .  S
C1503      C1504   1.399       .  A
C1503      F1508   1.358       .  S
C1504      C1505   1.411       .  A
C1504      F1520   1.357       .  S
C1505      C1506   1.410       .  A
C1506      F1509   1.357       .  S
C1507      C1510   1.401       .  A
C1507      C1514   1.403       .  A
C1510      C1511   1.397       .  A
C1510      F1515   1.358       .  S
C1511      C1512   1.414       .  A
C1511      F1517   1.358       .  S
C1512      C1513   1.412       .  A
C1513      C1514   1.401       .  A
C1513      F1516   1.358       .  S
C1514      F1518   1.358       .  S
C1521      C1522   1.401       .  A
C1521      C1526   1.396       .  A
C1521      F1539   1.358       .  S
C1522      C1523   1.402       .  A
C1522      C1527   1.470       .  S
C1523      C1524   1.398       .  A
C1523      F1528   1.358       .  S
C1524      C1525   1.408       .  A
C1524      F1540   1.357       .  S
C1525      C1526   1.408       .  A
C1526      F1529   1.357       .  S
C1527      C1530   1.401       .  A
C1527      C1534   1.399       .  A
C1530      C1531   1.399       .  A
C1530      F1535   1.358       .  S
C1531      C1532   1.410       .  A
C1531      F1537   1.357       .  S
C1532      C1533   1.412       .  A
C1533      C1534   1.395       .  A
C1533      F1536   1.357       .  S
C1534      F1538   1.358       .  S
C1541      C1542   1.403       .  A
C1541      C1546   1.400       .  A
C1541      F1559   1.358       .  S
C1542      C1543   1.402       .  A
C1542      C1547   1.472       .  S
C1543      C1544   1.394       .  A
C1543      F1548   1.358       .  S
C1544      C1545   1.406       .  A
C1544      F1560   1.358       .  S
C1545      C1546   1.407       .  A
C1546      F1549   1.358       .  S
C1547      C1550   1.401       .  A
C1547      C1554   1.400       .  A
C1550      C1551   1.399       .  A
C1550      F1555   1.358       .  S
C1551      C1552   1.412       .  A
C1551      F1557   1.356       .  S
C1552      C1553   1.413       .  A
C1553      C1554   1.396       .  A
C1553      F1556   1.357       .  S
C1554      F1558   1.358       .  S
C1561      C1562   1.402       .  A
C1561      C1566   1.398       .  A
C1561      F1579   1.358       .  S
C1562      C1563   1.402       .  A
C1562      C1567   1.477       .  S
C1563      C1564   1.399       .  A
C1563      F1568   1.358       .  S
C1564      C1565   1.414       .  A
C1564      F1580   1.358       .  S
C1565      C1566   1.412       .  A
C1566      F1569   1.358       .  S
C1567      C1570   1.403       .  A
C1567      C1574   1.403       .  A
C1570      C1571   1.398       .  A
C1570      F1575   1.358       .  S
C1571      C1572   1.410       .  A
C1571      F1577   1.357       .  S
C1572      C1573   1.411       .  A
C1573      C1574   1.398       .  A
C1573      F1576   1.357       .  S
C1574      F1578   1.358       .  S
C1581      C1582   1.403       .  A
C1581      C1586   1.401       .  A
C1581      F1599   1.358       .  S
C1582      C1583   1.404       .  A
C1582      C1587   1.484       .  S
C1583      C1584   1.401       .  A
C1583      F1588   1.358       .  S
C1584      C1585   1.412       .  A
C1584      F1600   1.356       .  S
C1585      C1586   1.413       .  A
C1586      F1589   1.357       .  S
C1587      C1590   1.404       .  A
C1587      C1594   1.403       .  A
C1590      C1591   1.400       .  A
C1590      F1595   1.358       .  S
C1591      C1592   1.413       .  A
C1591      F1597   1.358       .  S
C1592      C1593   1.414       .  A
C1593      C1594   1.401       .  A
C1593      F1596   1.358       .  S
C1594      F1598   1.358       .  S
C1601      C1602   1.401       .  A
C1601      C1606   1.398       .  A
C1601      F1619   1.358       .  S
C1602      C1603   1.401       .  A
C1602      C1607   1.472       .  S
C1603      C1604   1.398       .  A
C1603      F1608   1.358       .  S
C1604      C1605   1.411       .  A
C1604      F1620   1.357       .  S
C1605      C1606   1.411       .  A
C1606      F1609   1.357       .  S
C1607      C1610   1.401       .  A
C1607      C1614   1.401       .  A
C1610      C1611   1.399       .  A
C1610      F1615   1.358       .  S
C1611      C1612   1.412       .  A
C1611      F1617   1.358       .  S
C1612      C1613   1.411       .  A
C1613      C1614   1.397       .  A
C1613      F1616   1.358       .  S
C1614      F1618   1.358       .  S
C1621      C1622   1.405       .  A
C1621      C1626   1.399       .  A
C1621      F1639   1.358       .  S
C1622      C1623   1.405       .  A
C1622      C1627   1.484       .  S
C1623      C1624   1.399       .  A
C1623      F1628   1.358       .  S
C1624      C1625   1.412       .  A
C1624      F1640   1.358       .  S
C1625      C1626   1.411       .  A
C1626      F1629   1.358       .  S
C1627      C1630   1.405       .  A
C1627      C1634   1.405       .  A
C1630      C1631   1.398       .  A
C1630      F1635   1.358       .  S
C1631      C1632   1.410       .  A
C1631      F1637   1.357       .  S
C1632      C1633   1.411       .  A
C1633      C1634   1.400       .  A
C1633      F1636   1.357       .  S
C1634      F1638   1.358       .  S
C1641      C1642   1.404       .  A
C1641      C1646   1.400       .  A
C1641      F1659   1.358       .  S
C1642      C1643   1.404       .  A
C1642      C1647   1.481       .  S
C1643      C1644   1.400       .  A
C1643      F1648   1.358       .  S
C1644      C1645   1.409       .  A
C1644      F1660   1.357       .  S
C1645      C1646   1.409       .  A
C1646      F1649   1.357       .  S
C1647      C1650   1.406       .  A
C1647      C1654   1.404       .  A
C1650      C1651   1.402       .  A
C1650      F1655   1.358       .  S
C1651      C1652   1.407       .  A
C1651      F1657   1.357       .  S
C1652      C1653   1.409       .  A
C1653      C1654   1.399       .  A
C1653      F1656   1.358       .  S
C1654      F1658   1.358       .  S
C1661      C1662   1.403       .  A
C1661      C1666   1.400       .  A
C1661      F1679   1.358       .  S
C1662      C1663   1.402       .  A
C1662      C1667   1.477       .  S
C1663      C1664   1.397       .  A
C1663      F1668   1.358       .  S
C1664      C1665   1.409       .  A
C1664      F1680   1.357       .  S
C1665      C1666   1.411       .  A
C1666      F1669   1.357       .  S
C1667      C1670   1.403       .  A
C1667      C1674   1.402       .  A
C1670      C1671   1.401       .  A
C1670      F1675   1.358       .  S
C1671      C1672   1.410       .  A
C1671      F1677   1.357       .  S
C1672      C1673   1.409       .  A
C1673      C1674   1.396       .  A
C1673      F1676   1.357       .  S
C1674      F1678   1.358       .  S
C1681      C1682   1.407       .  A
C1681      C1686   1.405       .  A
C1681      F1699   1.358       .  S
C1682      C1683   1.404       .  A
C1682      C1687   1.488       .  S
C1683      C1684   1.400       .  A
C1683      F1688   1.358       .  S
C1684      C1685   1.410       .  A
C1684      F1700   1.357       .  S
C1685      C1686   1.410       .  A
C1686      F1689   1.358       .  S
C1687      C1690   1.404       .  A
C1687      C1694   1.404       .  A
C1690      C1691   1.401       .  A
C1690      F1695   1.358       .  S
C1691      C1692   1.413       .  A
C1691      F1697   1.357       .  S
C1692      C1693   1.415       .  A
C1693      C1694   1.404       .  A
C1693      F1696   1.358       .  S
C1694      F1698   1.358       .  S
C1701      C1702   1.405       .  A
C1701      C1706   1.397       .  A
C1701      F1719   1.358       .  S
C1702      C1703   1.406       .  A
C1702      C1707   1.485       .  S
C1703      C1704   1.401       .  A
C1703      F1708   1.358       .  S
C1704      C1705   1.411       .  A
C1704      F1720   1.357       .  S
C1705      C1706   1.410       .  A
C1706      F1709   1.357       .  S
C1707      C1710   1.406       .  A
C1707      C1714   1.406       .  A
C1710      C1711   1.397       .  A
C1710      F1715   1.358       .  S
C1711      C1712   1.408       .  A
C1711      F1717   1.357       .  S
C1712      C1713   1.410       .  A
C1713      C1714   1.401       .  A
C1713      F1716   1.357       .  S
C1714      F1718   1.358       .  S
C1721      C1722   1.406       .  A
C1721      C1726   1.400       .  A
C1721      F1739   1.358       .  S
C1722      C1723   1.406       .  A
C1722      C1727   1.485       .  S
C1723      C1724   1.400       .  A
C1723      F1728   1.358       .  S
C1724      C1725   1.407       .  A
C1724      F1740   1.357       .  S
C1725      C1726   1.408       .  A
C1726      F1729   1.358       .  S
C1727      C1730   1.406       .  A
C1727      C1734   1.406       .  A
C1730      C1731   1.401       .  A
C1730      F1735   1.358       .  S
C1731      C1732   1.409       .  A
C1731      F1737   1.358       .  S
C1732      C1733   1.407       .  A
C1733      C1734   1.398       .  A
C1733      F1736   1.357       .  S
C1734      F1738   1.358       .  S
C1741      C1742   1.402       .  A
C1741      C1746   1.400       .  A
C1741      F1759   1.358       .  S
C1742      C1743   1.401       .  A
C1742      C1747   1.472       .  S
C1743      C1744   1.397       .  A
C1743      F1748   1.358       .  S
C1744      C1745   1.408       .  A
C1744      F1760   1.358   1_655  S
C1745      C1746   1.409       .  A
C1746      F1749   1.358       .  S
C1747      C1750   1.401       .  A
C1747      C1754   1.402       .  A
C1750      C1751   1.397       .  A
C1750      F1755   1.358       .  S
C1751      C1752   1.409       .  A
C1751      F1757   1.357       .  S
C1752      C1753   1.410       .  A
C1753      C1754   1.399       .  A
C1753      F1756   1.357       .  S
C1754      F1758   1.358       .  S
C1761      C1762   1.403       .  A
C1761      C1766   1.394       .  A
C1761      F1779   1.358       .  S
C1762      C1763   1.405       .  A
C1762      C1767   1.477       .  S
C1763      C1764   1.402       .  A
C1763      F1768   1.358       .  S
C1764      C1765   1.407       .  A
C1764      F1780   1.357       .  S
C1765      C1766   1.408       .  A
C1766      F1769   1.358       .  S
C1767      C1770   1.401       .  A
C1767      C1774   1.404       .  A
C1770      C1771   1.394       .  A
C1770      F1775   1.358       .  S
C1771      C1772   1.409       .  A
C1771      F1777   1.357       .  S
C1772      C1773   1.411       .  A
C1773      C1774   1.401       .  A
C1773      F1776   1.357       .  S
C1774      F1778   1.358       .  S
C1781      C1782   1.402       .  A
C1781      C1786   1.396       .  A
C1781      F1799   1.358       .  S
C1782      C1783   1.402       .  A
C1782      C1787   1.473       .  S
C1783      C1784   1.400       .  A
C1783      F1788   1.358       .  S
C1784      C1785   1.409       .  A
C1784      F1800   1.357       .  S
C1785      C1786   1.407       .  A
C1786      F1789   1.358       .  S
C1787      C1790   1.403       .  A
C1787      C1794   1.403       .  A
C1790      C1791   1.398       .  A
C1790      F1795   1.358       .  S
C1791      C1792   1.405       .  A
C1791      F1797   1.358       .  S
C1792      C1793   1.407       .  A
C1793      C1794   1.399       .  A
C1793      F1796   1.358       .  S
C1794      F1798   1.358       .  S
C1801      C1802   1.405       .  A
C1801      C1806   1.400       .  A
C1801      F1819   1.358       .  S
C1802      C1803   1.405       .  A
C1802      C1807   1.486       .  S
C1803      C1804   1.401       .  A
C1803      F1808   1.358       .  S
C1804      C1805   1.412       .  A
C1804      F1820   1.358       .  S
C1805      C1806   1.411       .  A
C1806      F1809   1.358       .  S
C1807      C1810   1.407       .  A
C1807      C1814   1.405       .  A
C1810      C1811   1.402       .  A
C1810      F1815   1.358       .  S
C1811      C1812   1.407       .  A
C1811      F1817   1.357       .  S
C1812      C1813   1.409       .  A
C1813      C1814   1.399       .  A
C1813      F1816   1.358       .  S
C1814      F1818   1.358       .  S
C1821      C1822   1.402       .  A
C1821      C1826   1.398       .  A
C1821      F1839   1.358       .  S
C1822      C1823   1.402       .  A
C1822      C1827   1.474       .  S
C1823      C1824   1.398       .  A
C1823      F1828   1.358       .  S
C1824      C1825   1.409       .  A
C1824      F1840   1.357       .  S
C1825      C1826   1.411       .  A
C1826      F1829   1.357       .  S
C1827      C1830   1.401       .  A
C1827      C1834   1.402       .  A
C1830      C1831   1.397       .  A
C1830      F1835   1.358       .  S
C1831      C1832   1.413       .  A
C1831      F1837   1.358       .  S
C1832      C1833   1.412       .  A
C1833      C1834   1.399       .  A
C1833      F1836   1.358       .  S
C1834      F1838   1.358       .  S
C1841      C1842   1.403       .  A
C1841      C1846   1.401       .  A
C1841      F1859   1.358       .  S
C1842      C1843   1.401       .  A
C1842      C1847   1.473       .  S
C1843      C1844   1.395       .  A
C1843      F1848   1.358       .  S
C1844      C1845   1.410       .  A
C1844      F1860   1.358       .  S
C1845      C1846   1.410       .  A
C1846      F1849   1.358       .  S
C1847      C1850   1.402       .  A
C1847      C1854   1.401       .  A
C1850      C1851   1.397       .  A
C1850      F1855   1.358       .  S
C1851      C1852   1.409       .  A
C1851      F1857   1.357       .  S
C1852      C1853   1.411       .  A
C1853      C1854   1.398       .  A
C1853      F1856   1.357       .  S
C1854      F1858   1.358       .  S
C1861      C1862   1.400       .  A
C1861      C1866   1.395       .  A
C1861      F1879   1.358       .  S
C1862      C1863   1.403       .  A
C1862      C1867   1.474       .  S
C1863      C1864   1.400       .  A
C1863      F1868   1.358       .  S
C1864      C1865   1.412       .  A
C1864      F1880   1.358       .  S
C1865      C1866   1.413       .  A
C1866      F1869   1.358       .  S
C1867      C1870   1.403       .  A
C1867      C1874   1.403       .  A
C1870      C1871   1.398       .  A
C1870      F1875   1.358       .  S
C1871      C1872   1.408       .  A
C1871      F1877   1.357       .  S
C1872      C1873   1.408       .  A
C1873      C1874   1.397       .  A
C1873      F1876   1.358       .  S
C1874      F1878   1.358       .  S
C1881      C1882   1.404       .  A
C1881      C1886   1.399       .  A
C1881      F1899   1.358       .  S
C1882      C1883   1.404       .  A
C1882      C1887   1.474       .  S
C1883      C1884   1.397       .  A
C1883      F1888   1.358       .  S
C1884      C1885   1.404       .  A
C1884      F1900   1.358       .  S
C1885      C1886   1.405       .  A
C1886      F1889   1.358       .  S
C1887      C1890   1.403       .  A
C1887      C1894   1.401       .  A
C1890      C1891   1.401       .  A
C1890      F1895   1.358       .  S
C1891      C1892   1.411       .  A
C1891      F1897   1.357       .  S
C1892      C1893   1.409       .  A
C1893      C1894   1.394       .  A
C1893      F1896   1.357       .  S
C1894      F1898   1.358       .  S
C1901      C1902   1.401       .  A
C1901      C1906   1.399       .  A
C1901      F1919   1.358       .  S
C1902      C1903   1.401       .  A
C1902      C1907   1.471       .  S
C1903      C1904   1.397       .  A
C1903      F1908   1.358       .  S
C1904      C1905   1.408       .  A
C1904      F1920   1.358       .  S
C1905      C1906   1.409       .  A
C1906      F1909   1.357       .  S
C1907      C1910   1.400       .  A
C1907      C1914   1.401       .  A
C1910      C1911   1.397       .  A
C1910      F1915   1.358       .  S
C1911      C1912   1.411       .  A
C1911      F1917   1.357       .  S
C1912      C1913   1.409       .  A
C1913      C1914   1.398       .  A
C1913      F1916   1.357       .  S
C1914      F1918   1.358       .  S
C1921      C1922   1.407       .  A
C1921      C1926   1.402       .  A
C1921      F1939   1.358       .  S
C1922      C1923   1.406       .  A
C1922      C1927   1.489       .  S
C1923      C1924   1.401       .  A
C1923      F1928   1.358       .  S
C1924      C1925   1.409       .  A
C1924      F1940   1.357       .  S
C1925      C1926   1.409       .  A
C1926      F1929   1.358       .  S
C1927      C1930   1.406       .  A
C1927      C1934   1.405       .  A
C1930      C1931   1.403       .  A
C1930      F1935   1.358       .  S
C1931      C1932   1.413       .  A
C1931      F1937   1.358       .  S
C1932      C1933   1.412       .  A
C1933      C1934   1.401       .  A
C1933      F1936   1.358       .  S
C1934      F1938   1.358       .  S
C1941      C1942   1.404       .  A
C1941      C1946   1.396       .  A
C1941      F1959   1.358       .  S
C1942      C1943   1.406       .  A
C1942      C1947   1.482       .  S
C1943      C1944   1.400       .  A
C1943      F1948   1.358       .  S
C1944      C1945   1.408       .  A
C1944      F1960   1.357       .  S
C1945      C1946   1.409       .  A
C1946      F1949   1.357       .  S
C1947      C1950   1.406       .  A
C1947      C1954   1.405       .  A
C1950      C1951   1.398       .  A
C1950      F1955   1.358       .  S
C1951      C1952   1.408       .  A
C1951      F1957   1.357       .  S
C1952      C1953   1.409       .  A
C1953      C1954   1.398       .  A
C1953      F1956   1.357       .  S
C1954      F1958   1.358       .  S
C1961      C1962   1.402       .  A
C1961      C1966   1.396       .  A
C1961      F1979   1.358       .  S
C1962      C1963   1.405       .  A
C1962      C1967   1.481       .  S
C1963      C1964   1.402       .  A
C1963      F1968   1.358       .  S
C1964      C1965   1.412       .  A
C1964      F1980   1.357       .  S
C1965      C1966   1.412       .  A
C1966      F1969   1.357       .  S
C1967      C1970   1.404       .  A
C1967      C1974   1.404       .  A
C1970      C1971   1.397       .  A
C1970      F1975   1.358       .  S
C1971      C1972   1.410       .  A
C1971      F1977   1.357       .  S
C1972      C1973   1.409       .  A
C1973      C1974   1.402       .  A
C1973      F1976   1.357       .  S
C1974      F1978   1.358       .  S
C1981      C1982   1.404       .  A
C1981      C1986   1.398       .  A
C1981      F1999   1.358       .  S
C1982      C1983   1.402       .  A
C1982      C1987   1.479       .  S
C1983      C1984   1.396       .  A
C1983      F1988   1.358       .  S
C1984      C1985   1.413       .  A
C1984      F2000   1.358       .  S
C1985      C1986   1.411       .  A
C1986      F1989   1.358   1_565  S
C1987      C1990   1.405       .  A
C1987      C1994   1.403       .  A
C1990      C1991   1.399       .  A
C1990      F1995   1.358       .  S
C1991      C1992   1.408       .  A
C1991      F1997   1.357       .  S
C1992      C1993   1.410       .  A
C1993      C1994   1.397       .  A
C1993      F1996   1.357       .  S
C1994      F1998   1.358       .  S
C2001      C2002   1.404       .  A
C2001      C2006   1.400       .  A
C2001      F2019   1.358       .  S
C2002      C2003   1.405       .  A
C2002      C2007   1.484       .  S
C2003      C2004   1.400       .  A
C2003      F2008   1.358       .  S
C2004      C2005   1.409       .  A
C2004      F2020   1.357       .  S
C2005      C2006   1.410       .  A
C2006      F2009   1.358       .  S
C2007      C2010   1.404       .  A
C2007      C2014   1.405       .  A
C2010      C2011   1.400       .  A
C2010      F2015   1.358       .  S
C2011      C2012   1.410       .  A
C2011      F2017   1.357       .  S
C2012      C2013   1.409       .  A
C2013      C2014   1.401       .  A
C2013      F2016   1.357       .  S
C2014      F2018   1.358       .  S
C2021      C2022   1.406       .  A
C2021      C2026   1.398       .  A
C2021      F2039   1.358       .  S
C2022      C2023   1.405       .  A
C2022      C2027   1.481       .  S
C2023      C2024   1.398       .  A
C2023      F2028   1.358       .  S
C2024      C2025   1.407       .  A
C2024      F2040   1.358       .  S
C2025      C2026   1.407       .  A
C2026      F2029   1.358       .  S
C2027      C2030   1.402       .  A
C2027      C2034   1.404       .  A
C2030      C2031   1.395       .  A
C2030      F2035   1.358       .  S
C2031      C2032   1.411       .  A
C2031      F2037   1.356       .  S
C2032      C2033   1.413       .  A
C2033      C2034   1.401       .  A
C2033      F2036   1.357       .  S
C2034      F2038   1.358       .  S
C2041      C2042   1.404       .  A
C2041      C2046   1.399       .  A
C2041      F2059   1.358       .  S
C2042      C2043   1.404       .  A
C2042      C2047   1.482       .  S
C2043      C2044   1.403       .  A
C2043      F2048   1.358       .  S
C2044      C2045   1.409       .  A
C2044      F2060   1.357       .  S
C2045      C2046   1.409       .  A
C2046      F2049   1.357       .  S
C2047      C2050   1.402       .  A
C2047      C2054   1.404       .  A
C2050      C2051   1.398       .  A
C2050      F2055   1.358       .  S
C2051      C2052   1.412       .  A
C2051      F2057   1.358       .  S
C2052      C2053   1.412       .  A
C2053      C2054   1.404       .  A
C2053      F2056   1.358       .  S
C2054      F2058   1.358       .  S
C2061      C2062   1.405       .  A
C2061      C2066   1.403       .  A
C2061      F2079   1.358       .  S
C2062      C2063   1.404       .  A
C2062      C2067   1.484       .  S
C2063      C2064   1.401       .  A
C2063      F2068   1.358       .  S
C2064      C2065   1.410       .  A
C2064      F2080   1.357       .  S
C2065      C2066   1.409       .  A
C2066      F2069   1.357       .  S
C2067      C2070   1.403       .  A
C2067      C2074   1.403       .  A
C2070      C2071   1.402       .  A
C2070      F2075   1.358       .  S
C2071      C2072   1.414       .  A
C2071      F2077   1.358       .  S
C2072      C2073   1.413       .  A
C2073      C2074   1.402       .  A
C2073      F2076   1.357       .  S
C2074      F2078   1.358       .  S
C2081      C2082   1.404       .  A
C2081      C2086   1.395       .  A
C2081      F2099   1.358       .  S
C2082      C2083   1.405       .  A
C2082      C2087   1.478       .  S
C2083      C2084   1.401       .  A
C2083      F2088   1.358       .  S
C2084      C2085   1.408       .  A
C2084      F2100   1.358       .  S
C2085      C2086   1.406       .  A
C2086      F2089   1.357       .  S
C2087      C2090   1.404       .  A
C2087      C2094   1.404       .  A
C2090      C2091   1.395       .  A
C2090      F2095   1.358       .  S
C2091      C2092   1.409       .  A
C2091      F2097   1.358       .  S
C2092      C2093   1.411       .  A
C2093      C2094   1.400       .  A
C2093      F2096   1.358       .  S
C2094      F2098   1.358       .  S
C2101      C2102   1.404       .  A
C2101      C2106   1.398       .  A
C2101      F2119   1.358       .  S
C2102      C2103   1.407       .  A
C2102      C2107   1.489       .  S
C2103      C2104   1.404       .  A
C2103      F2108   1.358       .  S
C2104      C2105   1.412       .  A
C2104      F2120   1.358       .  S
C2105      C2106   1.413       .  A
C2106      F2109   1.358       .  S
C2107      C2110   1.406       .  A
C2107      C2114   1.405       .  A
C2110      C2111   1.403       .  A
C2110      F2115   1.358       .  S
C2111      C2112   1.412       .  A
C2111      F2117   1.356       .  S
C2112      C2113   1.413       .  A
C2113      C2114   1.399       .  A
C2113      F2116   1.356       .  S
C2114      F2118   1.358       .  S
C2121      C2122   1.405       .  A
C2121      C2126   1.398       .  A
C2121      F2139   1.358       .  S
C2122      C2123   1.406       .  A
C2122      C2127   1.482       .  S
C2123      C2124   1.401       .  A
C2123      F2128   1.358       .  S
C2124      C2125   1.407       .  A
C2124      F2140   1.358       .  S
C2125      C2126   1.407       .  A
C2126      F2129   1.358       .  S
C2127      C2130   1.404       .  A
C2127      C2134   1.403       .  A
C2130      C2131   1.401       .  A
C2130      F2135   1.358       .  S
C2131      C2132   1.412       .  A
C2131      F2137   1.357       .  S
C2132      C2133   1.411       .  A
C2133      C2134   1.398       .  A
C2133      F2136   1.357       .  S
C2134      F2138   1.358       .  S
C2141      C2142   1.406       .  A
C2141      C2146   1.400       .  A
C2141      F2159   1.358       .  S
C2142      C2143   1.406       .  A
C2142      C2147   1.489       .  S
C2143      C2144   1.402       .  A
C2143      F2148   1.358       .  S
C2144      C2145   1.411       .  A
C2144      F2160   1.357       .  S
C2145      C2146   1.409       .  A
C2146      F2149   1.357       .  S
C2147      C2150   1.408       .  A
C2147      C2154   1.408       .  A
C2150      C2151   1.401       .  A
C2150      F2155   1.358       .  S
C2151      C2152   1.406       .  A
C2151      F2157   1.358       .  S
C2152      C2153   1.406       .  A
C2153      C2154   1.401       .  A
C2153      F2156   1.358       .  S
C2154      F2158   1.358       .  S
C2161      C2162   1.408       .  A
C2161      C2166   1.402       .  A
C2161      F2179   1.358       .  S
C2162      C2163   1.407       .  A
C2162      C2167   1.492       .  S
C2163      C2164   1.401       .  A
C2163      F2168   1.358       .  S
C2164      C2165   1.409       .  A
C2164      F2180   1.358       .  S
C2165      C2166   1.408       .  A
C2166      F2169   1.357       .  S
C2167      C2170   1.406       .  A
C2167      C2174   1.407       .  A
C2170      C2171   1.401       .  A
C2170      F2175   1.358       .  S
C2171      C2172   1.413       .  A
C2171      F2177   1.358       .  S
C2172      C2173   1.412       .  A
C2173      C2174   1.402       .  A
C2173      F2176   1.358       .  S
C2174      F2178   1.358       .  S
C2181      C2182   1.402       .  A
C2181      C2186   1.402       .  A
C2181      F2199   1.358       .  S
C2182      C2183   1.403       .  A
C2182      C2187   1.478       .  S
C2183      C2184   1.398       .  A
C2183      F2188   1.358       .  S
C2184      C2185   1.409       .  A
C2184      F2200   1.357       .  S
C2185      C2186   1.412       .  A
C2186      F2189   1.357       .  S
C2187      C2190   1.403       .  A
C2187      C2194   1.401       .  A
C2190      C2191   1.402       .  A
C2190      F2195   1.358       .  S
C2191      C2192   1.411       .  A
C2191      F2197   1.357       .  S
C2192      C2193   1.412       .  A
C2193      C2194   1.398       .  A
C2193      F2196   1.356       .  S
C2194      F2198   1.358       .  S
C2201      C2202   1.408       .  A
C2201      C2206   1.402       .  A
C2201      F2219   1.358       .  S
C2202      C2203   1.407       .  A
C2202      C2207   1.494       .  S
C2203      C2204   1.403       .  A
C2203      F2208   1.358       .  S
C2204      C2205   1.412       .  A
C2204      F2220   1.357       .  S
C2205      C2206   1.410       .  A
C2206      F2209   1.357       .  S
C2207      C2210   1.407       .  A
C2207      C2214   1.407       .  A
C2210      C2211   1.402       .  A
C2210      F2215   1.358       .  S
C2211      C2212   1.411       .  A
C2211      F2217   1.357       .  S
C2212      C2213   1.411       .  A
C2213      C2214   1.403       .  A
C2213      F2216   1.357       .  S
C2214      F2218   1.358       .  S
C2221      C2222   1.404       .  A
C2221      C2226   1.401       .  A
C2221      F2239   1.358       .  S
C2222      C2223   1.401       .  A
C2222      C2227   1.476       .  S
C2223      C2224   1.394       .  A
C2223      F2228   1.358       .  S
C2224      C2225   1.412       .  A
C2224      F2240   1.358       .  S
C2225      C2226   1.411       .  A
C2226      F2229   1.358       .  S
C2227      C2230   1.404       .  A
C2227      C2234   1.402       .  A
C2230      C2231   1.397       .  A
C2230      F2235   1.358       .  S
C2231      C2232   1.408       .  A
C2231      F2237   1.357       .  S
C2232      C2233   1.409       .  A
C2233      C2234   1.398       .  A
C2233      F2236   1.357       .  S
C2234      F2238   1.358       .  S
C2241      C2242   1.404       .  A
C2241      C2246   1.401       .  A
C2241      F2259   1.358       .  S
C2242      C2243   1.404       .  A
C2242      C2247   1.480       .  S
C2243      C2244   1.399       .  A
C2243      F2248   1.358       .  S
C2244      C2245   1.408       .  A
C2244      F2260   1.358       .  S
C2245      C2246   1.409       .  A
C2246      F2249   1.357       .  S
C2247      C2250   1.403       .  A
C2247      C2254   1.404       .  A
C2250      C2251   1.399       .  A
C2250      F2255   1.358       .  S
C2251      C2252   1.409       .  A
C2251      F2257   1.357       .  S
C2252      C2253   1.411       .  A
C2253      C2254   1.401       .  A
C2253      F2256   1.357       .  S
C2254      F2258   1.358       .  S
C2261      C2262   1.404       .  A
C2261      C2266   1.404       .  A
C2261      F2279   1.358       .  S
C2262      C2263   1.404       .  A
C2262      C2267   1.482       .  S
C2263      C2264   1.398       .  A
C2263      F2268   1.358       .  S
C2264      C2265   1.408       .  A
C2264      F2280   1.358       .  S
C2265      C2266   1.410       .  A
C2266      F2269   1.357       .  S
C2267      C2270   1.405       .  A
C2267      C2274   1.403       .  A
C2270      C2271   1.404       .  A
C2270      F2275   1.358       .  S
C2271      C2272   1.410       .  A
C2271      F2277   1.357       .  S
C2272      C2273   1.408       .  A
C2273      C2274   1.397       .  A
C2273      F2276   1.357       .  S
C2274      F2278   1.358       .  S
C2281      C2282   1.403       .  A
C2281      C2286   1.402       .  A
C2281      F2299   1.358       .  S
C2282      C2283   1.401       .  A
C2282      C2287   1.478       .  S
C2283      C2284   1.399       .  A
C2283      F2288   1.358       .  S
C2284      C2285   1.411       .  A
C2284      F2300   1.357       .  S
C2285      C2286   1.411       .  A
C2286      F2289   1.357       .  S
C2287      C2290   1.403       .  A
C2287      C2294   1.402       .  A
C2290      C2291   1.402       .  A
C2290      F2295   1.358       .  S
C2291      C2292   1.411       .  A
C2291      F2297   1.358       .  S
C2292      C2293   1.410       .  A
C2293      C2294   1.399       .  A
C2293      F2296   1.358       .  S
C2294      F2298   1.358       .  S
C2301      C2302   1.404       .  A
C2301      C2306   1.399       .  A
C2301      F2319   1.358       .  S
C2302      C2303   1.403       .  A
C2302      C2307   1.483       .  S
C2303      C2304   1.400       .  A
C2303      F2308   1.358       .  S
C2304      C2305   1.413       .  A
C2304      F2320   1.358       .  S
C2305      C2306   1.413       .  A
C2306      F2309   1.358       .  S
C2307      C2310   1.404       .  A
C2307      C2314   1.406       .  A
C2310      C2311   1.398       .  A
C2310      F2315   1.358       .  S
C2311      C2312   1.410       .  A
C2311      F2317   1.357       .  S
C2312      C2313   1.409       .  A
C2313      C2314   1.402       .  A
C2313      F2316   1.357       .  S
C2314      F2318   1.358       .  S
C2321      C2322   1.404       .  A
C2321      C2326   1.399       .  A
C2321      F2339   1.358       .  S
C2322      C2323   1.403       .  A
C2322      C2327   1.477       .  S
C2323      C2324   1.398       .  A
C2323      F2328   1.358       .  S
C2324      C2325   1.408       .  A
C2324      F2340   1.357       .  S
C2325      C2326   1.408       .  A
C2326      F2329   1.357       .  S
C2327      C2330   1.402       .  A
C2327      C2334   1.403       .  A
C2330      C2331   1.399       .  A
C2330      F2335   1.358       .  S
C2331      C2332   1.412       .  A
C2331      F2337   1.358       .  S
C2332      C2333   1.411       .  A
C2333      C2334   1.399       .  A
C2333      F2336   1.358       .  S
C2334      F2338   1.358       .  S
C2341      C2342   1.405       .  A
C2341      C2346   1.401       .  A
C2341      F2359   1.358       .  S
C2342      C2343   1.403       .  A
C2342      C2347   1.481       .  S
C2343      C2344   1.396       .  A
C2343      F2348   1.358       .  S
C2344      C2345   1.410       .  A
C2344      F2360   1.358       .  S
C2345      C2346   1.410       .  A
C2346      F2349   1.358       .  S
C2347      C2350   1.405       .  A
C2347      C2354   1.404       .  A
C2350      C2351   1.401       .  A
C2350      F2355   1.358       .  S
C2351      C2352   1.410       .  A
C2351      F2357   1.357       .  S
C2352      C2353   1.408       .  A
C2353      C2354   1.397       .  A
C2353      F2356   1.357       .  S
C2354      F2358   1.358       .  S
C2361      C2362   1.402       .  A
C2361      C2366   1.398       .  A
C2361      F2379   1.358       .  S
C2362      C2363   1.404       .  A
C2362      C2367   1.476       .  S
C2363      C2364   1.401       .  A
C2363      F2368   1.358       .  S
C2364      C2365   1.407       .  A
C2364      F2380   1.358       .  S
C2365      C2366   1.408       .  A
C2366      F2369   1.358       .  S
C2367      C2370   1.403       .  A
C2367      C2374   1.402       .  A
C2370      C2371   1.400       .  A
C2370      F2375   1.358       .  S
C2371      C2372   1.407       .  A
C2371      F2377   1.357       .  S
C2372      C2373   1.409       .  A
C2373      C2374   1.399       .  A
C2373      F2376   1.358       .  S
C2374      F2378   1.358       .  S
C2381      C2382   1.402       .  A
C2381      C2386   1.397       .  A
C2381      F2399   1.358       .  S
C2382      C2383   1.402       .  A
C2382      C2387   1.475       .  S
C2383      C2384   1.399       .  A
C2383      F2388   1.358       .  S
C2384      C2385   1.412       .  A
C2384      F2400   1.357       .  S
C2385      C2386   1.409       .  A
C2386      F2389   1.357       .  S
C2387      C2390   1.404       .  A
C2387      C2394   1.403       .  A
C2390      C2391   1.401       .  A
C2390      F2395   1.358       .  S
C2391      C2392   1.406       .  A
C2391      F2397   1.357       .  S
C2392      C2393   1.407       .  A
C2393      C2394   1.397       .  A
C2393      F2396   1.358       .  S
C2394      F2398   1.358       .  S
C2401      C2402   1.405       .  A
C2401      C2406   1.397       .  A
C2401      F2419   1.358       .  S
C2402      C2403   1.406       .  A
C2402      C2407   1.481       .  S
C2403      C2404   1.398       .  A
C2403      F2408   1.358       .  S
C2404      C2405   1.407       .  A
C2404      F2420   1.357       .  S
C2405      C2406   1.408       .  A
C2406      F2409   1.358       .  S
C2407      C2410   1.404       .  A
C2407      C2414   1.404       .  A
C2410      C2411   1.397       .  A
C2410      F2415   1.358       .  S
C2411      C2412   1.411       .  A
C2411      F2417   1.358       .  S
C2412      C2413   1.413       .  A
C2413      C2414   1.398       .  A
C2413      F2416   1.358       .  S
C2414      F2418   1.358       .  S
C2421      C2422   1.404       .  A
C2421      C2426   1.399       .  A
C2421      F2439   1.358       .  S
C2422      C2423   1.404       .  A
C2422      C2427   1.479       .  S
C2423      C2424   1.399       .  A
C2423      F2428   1.358       .  S
C2424      C2425   1.409       .  A
C2424      F2440   1.357       .  S
C2425      C2426   1.409       .  A
C2426      F2429   1.357       .  S
C2427      C2430   1.404       .  A
C2427      C2434   1.404       .  A
C2430      C2431   1.399       .  A
C2430      F2435   1.358       .  S
C2431      C2432   1.408       .  A
C2431      F2437   1.358       .  S
C2432      C2433   1.407       .  A
C2433      C2434   1.400       .  A
C2433      F2436   1.357       .  S
C2434      F2438   1.358       .  S
C2441      C2442   1.402       .  A
C2441      C2446   1.397       .  A
C2441      F2459   1.358       .  S
C2442      C2443   1.402       .  A
C2442      C2447   1.471       .  S
C2443      C2444   1.399       .  A
C2443      F2448   1.358       .  S
C2444      C2445   1.408       .  A
C2444      F2460   1.358       .  S
C2445      C2446   1.407       .  A
C2446      F2449   1.358       .  S
C2447      C2450   1.401       .  A
C2447      C2454   1.401       .  A
C2450      C2451   1.398       .  A
C2450      F2455   1.358       .  S
C2451      C2452   1.410       .  A
C2451      F2457   1.357       .  S
C2452      C2453   1.409       .  A
C2453      C2454   1.398       .  A
C2453      F2456   1.357       .  S
C2454      F2458   1.358       .  S
C2461      C2462   1.404       .  A
C2461      C2466   1.396       .  A
C2461      F2479   1.358       .  S
C2462      C2463   1.403       .  A
C2462      C2467   1.476       .  S
C2463      C2464   1.398       .  A
C2463      F2468   1.358       .  S
C2464      C2465   1.408       .  A
C2464      F2480   1.357       .  S
C2465      C2466   1.408       .  A
C2466      F2469   1.358       .  S
C2467      C2470   1.401       .  A
C2467      C2474   1.403       .  A
C2470      C2471   1.394       .  A
C2470      F2475   1.358       .  S
C2471      C2472   1.412       .  A
C2471      F2477   1.358       .  S
C2472      C2473   1.413       .  A
C2473      C2474   1.400       .  A
C2473      F2476   1.358       .  S
C2474      F2478   1.358       .  S
C2481      C2482   1.402       .  A
C2481      C2486   1.398       .  A
C2481      F2499   1.358       .  S
C2482      C2483   1.405       .  A
C2482      C2487   1.474       .  S
C2483      C2484   1.398       .  A
C2483      F2488   1.358       .  S
C2484      C2485   1.405       .  A
C2484      F2500   1.358       .  S
C2485      C2486   1.407       .  A
C2486      F2489   1.358       .  S
C2487      C2490   1.399       .  A
C2487      C2494   1.403       .  A
C2490      C2491   1.394       .  A
C2490      F2495   1.358       .  S
C2491      C2492   1.411       .  A
C2491      F2497   1.357       .  S
C2492      C2493   1.411       .  A
C2493      C2494   1.401       .  A
C2493      F2496   1.357       .  S
C2494      F2498   1.358       .  S
C2501      C2502   1.403       .  A
C2501      C2506   1.401       .  A
C2501      F2519   1.358       .  S
C2502      C2503   1.403       .  A
C2502      C2507   1.478       .  S
C2503      C2504   1.399       .  A
C2503      F2508   1.358       .  S
C2504      C2505   1.408       .  A
C2504      F2520   1.357       .  S
C2505      C2506   1.410       .  A
C2506      F2509   1.357       .  S
C2507      C2510   1.404       .  A
C2507      C2514   1.402       .  A
C2510      C2511   1.403       .  A
C2510      F2515   1.358       .  S
C2511      C2512   1.410       .  A
C2511      F2517   1.357       .  S
C2512      C2513   1.409       .  A
C2513      C2514   1.397       .  A
C2513      F2516   1.357       .  S
C2514      F2518   1.358       .  S
C2521      C2522   1.404       .  A
C2521      C2526   1.398       .  A
C2521      F2539   1.358       .  S
C2522      C2523   1.405       .  A
C2522      C2527   1.482       .  S
C2523      C2524   1.402       .  A
C2523      F2528   1.358       .  S
C2524      C2525   1.409       .  A
C2524      F2540   1.357       .  S
C2525      C2526   1.410       .  A
C2526      F2529   1.357       .  S
C2527      C2530   1.404       .  A
C2527      C2534   1.403       .  A
C2530      C2531   1.403       .  A
C2530      F2535   1.358       .  S
C2531      C2532   1.414       .  A
C2531      F2537   1.358       .  S
C2532      C2533   1.412       .  A
C2533      C2534   1.397       .  A
C2533      F2536   1.358       .  S
C2534      F2538   1.358       .  S
C2541      C2542   1.403       .  A
C2541      C2546   1.397       .  A
C2541      F2559   1.358       .  S
C2542      C2543   1.403       .  A
C2542      C2547   1.477       .  S
C2543      C2544   1.400       .  A
C2543      F2548   1.358       .  S
C2544      C2545   1.410       .  A
C2544      F2560   1.358       .  S
C2545      C2546   1.409       .  A
C2546      F2549   1.358       .  S
C2547      C2550   1.403       .  A
C2547      C2554   1.403       .  A
C2550      C2551   1.397       .  A
C2550      F2555   1.358       .  S
C2551      C2552   1.408       .  A
C2551      F2557   1.357       .  S
C2552      C2553   1.410       .  A
C2553      C2554   1.401       .  A
C2553      F2556   1.358       .  S
C2554      F2558   1.358       .  S
C2561      C2562   1.403       .  A
C2561      C2566   1.397       .  A
C2561      F2579   1.358       .  S
C2562      C2563   1.405       .  A
C2562      C2567   1.476       .  S
C2563      C2564   1.399       .  A
C2563      F2568   1.358       .  S
C2564      C2565   1.405       .  A
C2564      F2580   1.358       .  S
C2565      C2566   1.407       .  A
C2566      F2569   1.358       .  S
C2567      C2570   1.404       .  A
C2567      C2574   1.403       .  A
C2570      C2571   1.398       .  A
C2570      F2575   1.358       .  S
C2571      C2572   1.407       .  A
C2571      F2577   1.358       .  S
C2572      C2573   1.409       .  A
C2573      C2574   1.398       .  A
C2573      F2576   1.358       .  S
C2574      F2578   1.358       .  S
C2581      C2582   1.400       .  A
C2581      C2586   1.393       .  A
C2581      F2599   1.358       .  S
C2582      C2583   1.402       .  A
C2582      C2587   1.473       .  S
C2583      C2584   1.400       .  A
C2583      F2588   1.358       .  S
C2584      C2585   1.413       .  A
C2584      F2600   1.358       .  S
C2585      C2586   1.412       .  A
C2586      F2589   1.358       .  S
C2587      C2590   1.403       .  A
C2587      C2594   1.402       .  A
C2590      C2591   1.397       .  A
C2590      F2595   1.358       .  S
C2591      C2592   1.409       .  A
C2591      F2597   1.357       .  S
C2592      C2593   1.410       .  A
C2593      C2594   1.398       .  A
C2593      F2596   1.357       .  S
C2594      F2598   1.358       .  S
C2601      C2602   1.405       .  A
C2601      C2606   1.401       .  A
C2601      F2619   1.358       .  S
C2602      C2603   1.402       .  A
C2602      C2607   1.475       .  S
C2603      C2604   1.393       .  A
C2603      F2608   1.358       .  S
C2604      C2605   1.408       .  A
C2604      F2620   1.358       .  S
C2605      C2606   1.407       .  A
C2606      F2609   1.358       .  S
C2607      C2610   1.402       .  A
C2607      C2614   1.403       .  A
C2610      C2611   1.400       .  A
C2610      F2615   1.358       .  S
C2611      C2612   1.411       .  A
C2611      F2617   1.357       .  S
C2612      C2613   1.408       .  A
C2613      C2614   1.396       .  A
C2613      F2616   1.357       .  S
C2614      F2618   1.358       .  S
C2621      C2622   1.402       .  A
C2621      C2626   1.396       .  A
C2621      F2639   1.358       .  S
C2622      C2623   1.402       .  A
C2622      C2627   1.471       .  S
C2623      C2624   1.398       .  A
C2623      F2628   1.358       .  S
C2624      C2625   1.408       .  A
C2624      F2640   1.357       .  S
C2625      C2626   1.409       .  A
C2626      F2629   1.357       .  S
C2627      C2630   1.402       .  A
C2627      C2634   1.401       .  A
C2630      C2631   1.399       .  A
C2630      F2635   1.358       .  S
C2631      C2632   1.409       .  A
C2631      F2637   1.357       .  S
C2632      C2633   1.410       .  A
C2633      C2634   1.395       .  A
C2633      F2636   1.357       .  S
C2634      F2638   1.358       .  S
C2641      C2642   1.405       .  A
C2641      C2646   1.406       .  A
C2641      F2659   1.358       .  S
C2642      C2643   1.401       .  A
C2642      C2647   1.485       .  S
C2643      C2644   1.401       .  A
C2643      F2648   1.358       .  S
C2644      C2645   1.414       .  A
C2644      F2660   1.358       .  S
C2645      C2646   1.413       .  A
C2646      F2649   1.358       .  S
C2647      C2650   1.403       .  A
C2647      C2654   1.402       .  A
C2650      C2651   1.404       .  A
C2650      F2655   1.358       .  S
C2651      C2652   1.414       .  A
C2651      F2657   1.356       .  S
C2652      C2653   1.413       .  A
C2653      C2654   1.402       .  A
C2653      F2656   1.357       .  S
C2654      F2658   1.358       .  S
C2661      C2662   1.405       .  A
C2661      C2666   1.400       .  A
C2661      F2679   1.358       .  S
C2662      C2663   1.405       .  A
C2662      C2667   1.485       .  S
C2663      C2664   1.400       .  A
C2663      F2668   1.358       .  S
C2664      C2665   1.410       .  A
C2664      F2680   1.357       .  S
C2665      C2666   1.411       .  A
C2666      F2669   1.357       .  S
C2667      C2670   1.405       .  A
C2667      C2674   1.405       .  A
C2670      C2671   1.401       .  A
C2670      F2675   1.358       .  S
C2671      C2672   1.410       .  A
C2671      F2677   1.357       .  S
C2672      C2673   1.409       .  A
C2673      C2674   1.400       .  A
C2673      F2676   1.357       .  S
C2674      F2678   1.358       .  S
C2681      C2682   1.402       .  A
C2681      C2686   1.400       .  A
C2681      F2699   1.358       .  S
C2682      C2683   1.400       .  A
C2682      C2687   1.474       .  S
C2683      C2684   1.397       .  A
C2683      F2688   1.358       .  S
C2684      C2685   1.411       .  A
C2684      F2700   1.357       .  S
C2685      C2686   1.410       .  A
C2686      F2689   1.357       .  S
C2687      C2690   1.402       .  A
C2687      C2694   1.401       .  A
C2690      C2691   1.400       .  A
C2690      F2695   1.358       .  S
C2691      C2692   1.411       .  A
C2691      F2697   1.357       .  S
C2692      C2693   1.411       .  A
C2693      C2694   1.399       .  A
C2693      F2696   1.357       .  S
C2694      F2698   1.358       .  S
C2701      C2702   1.403       .  A
C2701      C2706   1.399       .  A
C2701      F2719   1.358       .  S
C2702      C2703   1.404       .  A
C2702      C2707   1.482       .  S
C2703      C2704   1.400       .  A
C2703      F2708   1.358       .  S
C2704      C2705   1.411       .  A
C2704      F2720   1.357       .  S
C2705      C2706   1.413       .  A
C2706      F2709   1.356       .  S
C2707      C2710   1.405       .  A
C2707      C2714   1.404       .  A
C2710      C2711   1.398       .  A
C2710      F2715   1.358       .  S
C2711      C2712   1.411       .  A
C2711      F2717   1.358       .  S
C2712      C2713   1.412       .  A
C2713      C2714   1.399       .  A
C2713      F2716   1.358       .  S
C2714      F2718   1.358       .  S
C2721      C2722   1.404       .  A
C2721      C2726   1.400       .  A
C2721      F2739   1.358       .  S
C2722      C2723   1.403       .  A
C2722      C2727   1.481       .  S
C2723      C2724   1.400       .  A
C2723      F2728   1.358       .  S
C2724      C2725   1.410       .  A
C2724      F2740   1.357       .  S
C2725      C2726   1.410       .  A
C2726      F2729   1.357       .  S
C2727      C2730   1.403       .  A
C2727      C2734   1.403       .  A
C2730      C2731   1.402       .  A
C2730      F2735   1.358       .  S
C2731      C2732   1.411       .  A
C2731      F2737   1.357       .  S
C2732      C2733   1.411       .  A
C2733      C2734   1.399       .  A
C2733      F2736   1.357       .  S
C2734      F2738   1.358       .  S
C2741      C2742   1.404       .  A
C2741      C2746   1.397       .  A
C2741      F2759   1.358       .  S
C2742      C2743   1.406       .  A
C2742      C2747   1.481       .  S
C2743      C2744   1.402       .  A
C2743      F2748   1.358       .  S
C2744      C2745   1.408       .  A
C2744      F2760   1.358       .  S
C2745      C2746   1.408       .  A
C2746      F2749   1.358       .  S
C2747      C2750   1.404       .  A
C2747      C2754   1.405       .  A
C2750      C2751   1.398       .  A
C2750      F2755   1.358       .  S
C2751      C2752   1.408       .  A
C2751      F2757   1.357       .  S
C2752      C2753   1.409       .  A
C2753      C2754   1.401       .  A
C2753      F2756   1.357       .  S
C2754      F2758   1.358       .  S
C2761      C2762   1.402       .  A
C2761      C2766   1.400       .  A
C2761      F2779   1.358       .  S
C2762      C2763   1.402       .  A
C2762      C2767   1.482       .  S
C2763      C2764   1.402       .  A
C2763      F2768   1.358       .  S
C2764      C2765   1.414       .  A
C2764      F2780   1.356       .  S
C2765      C2766   1.414       .  A
C2766      F2769   1.356       .  S
C2767      C2770   1.404       .  A
C2767      C2774   1.405       .  A
C2770      C2771   1.400       .  A
C2770      F2775   1.358       .  S
C2771      C2772   1.409       .  A
C2771      F2777   1.358       .  S
C2772      C2773   1.408       .  A
C2773      C2774   1.403       .  A
C2773      F2776   1.358       .  S
C2774      F2778   1.358       .  S
C2781      C2782   1.403       .  A
C2781      C2786   1.399       .  A
C2781      F2799   1.358       .  S
C2782      C2783   1.403       .  A
C2782      C2787   1.480       .  S
C2783      C2784   1.401       .  A
C2783      F2788   1.358       .  S
C2784      C2785   1.413       .  A
C2784      F2800   1.358       .  S
C2785      C2786   1.411       .  A
C2786      F2789   1.358       .  S
C2787      C2790   1.404       .  A
C2787      C2794   1.403       .  A
C2790      C2791   1.401       .  A
C2790      F2795   1.358       .  S
C2791      C2792   1.410       .  A
C2791      F2797   1.357       .  S
C2792      C2793   1.410       .  A
C2793      C2794   1.399       .  A
C2793      F2796   1.357       .  S
C2794      F2798   1.358       .  S
C2801      C2802   1.402       .  A
C2801      C2806   1.399       .  A
C2801      F2819   1.358       .  S
C2802      C2803   1.400       .  A
C2802      C2807   1.473       .  S
C2803      C2804   1.398       .  A
C2803      F2808   1.358       .  S
C2804      C2805   1.411       .  A
C2804      F2820   1.357       .  S
C2805      C2806   1.410       .  A
C2806      F2809   1.357       .  S
C2807      C2810   1.401       .  A
C2807      C2814   1.400       .  A
C2810      C2811   1.399       .  A
C2810      F2815   1.358       .  S
C2811      C2812   1.412       .  A
C2811      F2817   1.358       .  S
C2812      C2813   1.413       .  A
C2813      C2814   1.399       .  A
C2813      F2816   1.358       .  S
C2814      F2818   1.358       .  S
C2821      C2822   1.402       .  A
C2821      C2826   1.397       .  A
C2821      F2839   1.358       .  S
C2822      C2823   1.404       .  A
C2822      C2827   1.479       .  S
C2823      C2824   1.399       .  A
C2823      F2828   1.358       .  S
C2824      C2825   1.411       .  A
C2824      F2840   1.357       .  S
C2825      C2826   1.414       .  A
C2826      F2829   1.358       .  S
C2827      C2830   1.405       .  A
C2827      C2834   1.402       .  A
C2830      C2831   1.400       .  A
C2830      F2835   1.358       .  S
C2831      C2832   1.410       .  A
C2831      F2837   1.357       .  S
C2832      C2833   1.411       .  A
C2833      C2834   1.395       .  A
C2833      F2836   1.357       .  S
C2834      F2838   1.358       .  S
C2841      C2842   1.401       .  A
C2841      C2846   1.397       .  A
C2841      F2859   1.358       .  S
C2842      C2843   1.403       .  A
C2842      C2847   1.473       .  S
C2843      C2844   1.400       .  A
C2843      F2848   1.358       .  S
C2844      C2845   1.408       .  A
C2844      F2860   1.357       .  S
C2845      C2846   1.409       .  A
C2846      F2849   1.358       .  S
C2847      C2850   1.402       .  A
C2847      C2854   1.402       .  A
C2850      C2851   1.398       .  A
C2850      F2855   1.358       .  S
C2851      C2852   1.408       .  A
C2851      F2857   1.358       .  S
C2852      C2853   1.409       .  A
C2853      C2854   1.399       .  A
C2853      F2856   1.357       .  S
C2854      F2858   1.358       .  S
C2861      C2862   1.403       .  A
C2861      C2866   1.400       .  A
C2861      F2879   1.358       .  S
C2862      C2863   1.402       .  A
C2862      C2867   1.473       .  S
C2863      C2864   1.397       .  A
C2863      F2868   1.358       .  S
C2864      C2865   1.409       .  A
C2864      F2880   1.358       .  S
C2865      C2866   1.408       .  A
C2866      F2869   1.357       .  S
C2867      C2870   1.403       .  A
C2867      C2874   1.403       .  A
C2870      C2871   1.396       .  A
C2870      F2875   1.358       .  S
C2871      C2872   1.407       .  A
C2871      F2877   1.357       .  S
C2872      C2873   1.408       .  A
C2873      C2874   1.399       .  A
C2873      F2876   1.358       .  S
C2874      F2878   1.358       .  S
C2881      C2882   1.403       .  A
C2881      C2886   1.398       .  A
C2881      F2899   1.358       .  S
C2882      C2883   1.402       .  A
C2882      C2887   1.478       .  S
C2883      C2884   1.397       .  A
C2883      F2888   1.358       .  S
C2884      C2885   1.413       .  A
C2884      F2900   1.358       .  S
C2885      C2886   1.411       .  A
C2886      F2889   1.358       .  S
C2887      C2890   1.404       .  A
C2887      C2894   1.404       .  A
C2890      C2891   1.398       .  A
C2890      F2895   1.358       .  S
C2891      C2892   1.408       .  A
C2891      F2897   1.357       .  S
C2892      C2893   1.409       .  A
C2893      C2894   1.397       .  A
C2893      F2896   1.358       .  S
C2894      F2898   1.358       .  S
C2901      C2902   1.402       .  A
C2901      C2906   1.397       .  A
C2901      F2919   1.358       .  S
C2902      C2903   1.404       .  A
C2902      C2907   1.479       .  S
C2903      C2904   1.401       .  A
C2903      F2908   1.358       .  S
C2904      C2905   1.411       .  A
C2904      F2920   1.357       .  S
C2905      C2906   1.411       .  A
C2906      F2909   1.357       .  S
C2907      C2910   1.403       .  A
C2907      C2914   1.405       .  A
C2910      C2911   1.400       .  A
C2910      F2915   1.358       .  S
C2911      C2912   1.410       .  A
C2911      F2917   1.358       .  S
C2912      C2913   1.407       .  A
C2913      C2914   1.398       .  A
C2913      F2916   1.357       .  S
C2914      F2918   1.358       .  S
C2921      C2922   1.402       .  A
C2921      C2926   1.397       .  A
C2921      F2939   1.358       .  S
C2922      C2923   1.403       .  A
C2922      C2927   1.477       .  S
C2923      C2924   1.401       .  A
C2923      F2928   1.358       .  S
C2924      C2925   1.410       .  A
C2924      F2940   1.357       .  S
C2925      C2926   1.411       .  A
C2926      F2929   1.357       .  S
C2927      C2930   1.403       .  A
C2927      C2934   1.402       .  A
C2930      C2931   1.399       .  A
C2930      F2935   1.358       .  S
C2931      C2932   1.409       .  A
C2931      F2937   1.357       .  S
C2932      C2933   1.411       .  A
C2933      C2934   1.399       .  A
C2933      F2936   1.357       .  S
C2934      F2938   1.358       .  S
C2941      C2942   1.402       .  A
C2941      C2946   1.399       .  A
C2941      F2959   1.358       .  S
C2942      C2943   1.402       .  A
C2942      C2947   1.474       .  S
C2943      C2944   1.396       .  A
C2943      F2948   1.358       .  S
C2944      C2945   1.409       .  A
C2944      F2960   1.357       .  S
C2945      C2946   1.410       .  A
C2946      F2949   1.357       .  S
C2947      C2950   1.402       .  A
C2947      C2954   1.402       .  A
C2950      C2951   1.399       .  A
C2950      F2955   1.358       .  S
C2951      C2952   1.410       .  A
C2951      F2957   1.358       .  S
C2952      C2953   1.409       .  A
C2953      C2954   1.395       .  A
C2953      F2956   1.358       .  S
C2954      F2958   1.358       .  S
C2961      C2962   1.407       .  A
C2961      C2966   1.399       .  A
C2961      F2979   1.358       .  S
C2962      C2963   1.406       .  A
C2962      C2967   1.485       .  S
C2963      C2964   1.399       .  A
C2963      F2968   1.358       .  S
C2964      C2965   1.408       .  A
C2964      F2980   1.357       .  S
C2965      C2966   1.408       .  A
C2966      F2969   1.358       .  S
C2967      C2970   1.405       .  A
C2967      C2974   1.406       .  A
C2970      C2971   1.399       .  A
C2970      F2975   1.358       .  S
C2971      C2972   1.411       .  A
C2971      F2977   1.357       .  S
C2972      C2973   1.409       .  A
C2973      C2974   1.398       .  A
C2973      F2976   1.357       .  S
C2974      F2978   1.358       .  S
C2981      C2982   1.401       .  A
C2981      C2986   1.398       .  A
C2981      F2999   1.358       .  S
C2982      C2983   1.402       .  A
C2982      C2987   1.475       .  S
C2983      C2984   1.400       .  A
C2983      F2988   1.358       .  S
C2984      C2985   1.410       .  A
C2984      F3000   1.357       .  S
C2985      C2986   1.411       .  A
C2986      F2989   1.357       .  S
C2987      C2990   1.402       .  A
C2987      C2994   1.402       .  A
C2990      C2991   1.399       .  A
C2990      F2995   1.358       .  S
C2991      C2992   1.409       .  A
C2991      F2997   1.357       .  S
C2992      C2993   1.410       .  A
C2993      C2994   1.399       .  A
C2993      F2996   1.357       .  S
C2994      F2998   1.358       .  S
C3001      C3002   1.403       .  A
C3001      C3006   1.398       .  A
C3001      F3019   1.358       .  S
C3002      C3003   1.402       .  A
C3002      C3007   1.476       .  S
C3003      C3004   1.399       .  A
C3003      F3008   1.358       .  S
C3004      C3005   1.410       .  A
C3004      F3020   1.357       .  S
C3005      C3006   1.410       .  A
C3006      F3009   1.357       .  S
C3007      C3010   1.402       .  A
C3007      C3014   1.402       .  A
C3010      C3011   1.397       .  A
C3010      F3015   1.358       .  S
C3011      C3012   1.412       .  A
C3011      F3017   1.358       .  S
C3012      C3013   1.412       .  A
C3013      C3014   1.400       .  A
C3013      F3016   1.358       .  S
C3014      F3018   1.358       .  S
C3021      C3022   1.405       .  A
C3021      C3026   1.398       .  A
C3021      F3039   1.358       .  S
C3022      C3023   1.406       .  A
C3022      C3027   1.484       .  S
C3023      C3024   1.398       .  A
C3023      F3028   1.358       .  S
C3024      C3025   1.410       .  A
C3024      F3040   1.357       .  S
C3025      C3026   1.410       .  A
C3026      F3029   1.357       .  S
C3027      C3030   1.405       .  A
C3027      C3034   1.405       .  A
C3030      C3031   1.399       .  A
C3030      F3035   1.358       .  S
C3031      C3032   1.412       .  A
C3031      F3037   1.358       .  S
C3032      C3033   1.411       .  A
C3033      C3034   1.397       .  A
C3033      F3036   1.358       .  S
C3034      F3038   1.358       .  S
C3041      C3042   1.402       .  A
C3041      C3046   1.399       .  A
C3041      F3059   1.358       .  S
C3042      C3043   1.402       .  A
C3042      C3047   1.476       .  S
C3043      C3044   1.399       .  A
C3043      F3048   1.358       .  S
C3044      C3045   1.411       .  A
C3044      F3060   1.357       .  S
C3045      C3046   1.410       .  A
C3046      F3049   1.357       .  S
C3047      C3050   1.402       .  A
C3047      C3054   1.401       .  A
C3050      C3051   1.399       .  A
C3050      F3055   1.358       .  S
C3051      C3052   1.412       .  A
C3051      F3057   1.358       .  S
C3052      C3053   1.412       .  A
C3053      C3054   1.398       .  A
C3053      F3056   1.358       .  S
C3054      F3058   1.358       .  S
C3061      C3062   1.404       .  A
C3061      C3066   1.400       .  A
C3061      F3079   1.358       .  S
C3062      C3063   1.404       .  A
C3062      C3067   1.479       .  S
C3063      C3064   1.396       .  A
C3063      F3068   1.358       .  S
C3064      C3065   1.407       .  A
C3064      F3080   1.357       .  S
C3065      C3066   1.409       .  A
C3066      F3069   1.357       .  S
C3067      C3070   1.402       .  A
C3067      C3074   1.404       .  A
C3070      C3071   1.396       .  A
C3070      F3075   1.358       .  S
C3071      C3072   1.413       .  A
C3071      F3077   1.358       .  S
C3072      C3073   1.412       .  A
C3073      C3074   1.401       .  A
C3073      F3076   1.357       .  S
C3074      F3078   1.358       .  S
C3081      C3082   1.403       .  A
C3081      C3086   1.398       .  A
C3081      F3099   1.358       .  S
C3082      C3083   1.403       .  A
C3082      C3087   1.474       .  S
C3083      C3084   1.397       .  A
C3083      F3088   1.358       .  S
C3084      C3085   1.407       .  A
C3084      F3100   1.358       .  S
C3085      C3086   1.408       .  A
C3086      F3089   1.357       .  S
C3087      C3090   1.403       .  A
C3087      C3094   1.403       .  A
C3090      C3091   1.396       .  A
C3090      F3095   1.358       .  S
C3091      C3092   1.407       .  A
C3091      F3097   1.357       .  S
C3092      C3093   1.409       .  A
C3093      C3094   1.400       .  A
C3093      F3096   1.357       .  S
C3094      F3098   1.358       .  S
C3101      C3102   1.400       .  A
C3101      C3106   1.399       .  A
C3101      F3119   1.358       .  S
C3102      C3103   1.400       .  A
C3102      C3107   1.475       .  S
C3103      C3104   1.397       .  A
C3103      F3108   1.358       .  S
C3104      C3105   1.415       .  A
C3104      F3120   1.356       .  S
C3105      C3106   1.414       .  A
C3106      F3109   1.356       .  S
C3107      C3110   1.403       .  A
C3107      C3114   1.401       .  A
C3110      C3111   1.401       .  A
C3110      F3115   1.358       .  S
C3111      C3112   1.409       .  A
C3111      F3117   1.357       .  S
C3112      C3113   1.410       .  A
C3113      C3114   1.395       .  A
C3113      F3116   1.357       .  S
C3114      F3118   1.358       .  S
C3121      C3122   1.404       .  A
C3121      C3126   1.403       .  A
C3121      F3139   1.358       .  S
C3122      C3123   1.405       .  A
C3122      C3127   1.486       .  S
C3123      C3124   1.403       .  A
C3123      F3128   1.358       .  S
C3124      C3125   1.409       .  A
C3124      F3140   1.357       .  S
C3125      C3126   1.410       .  A
C3126      F3129   1.357       .  S
C3127      C3130   1.404       .  A
C3127      C3134   1.403       .  A
C3130      C3131   1.405       .  A
C3130      F3135   1.358       .  S
C3131      C3132   1.412       .  A
C3131      F3137   1.357       .  S
C3132      C3133   1.413       .  A
C3133      C3134   1.402       .  A
C3133      F3136   1.358       .  S
C3134      F3138   1.358       .  S
C3141      C3142   1.403       .  A
C3141      C3146   1.401       .  A
C3141      F3159   1.358       .  S
C3142      C3143   1.402       .  A
C3142      C3147   1.476       .  S
C3143      C3144   1.399       .  A
C3143      F3148   1.358       .  S
C3144      C3145   1.410       .  A
C3144      F3160   1.357       .  S
C3145      C3146   1.409       .  A
C3146      F3149   1.357       .  S
C3147      C3150   1.403       .  A
C3147      C3154   1.403       .  A
C3150      C3151   1.399       .  A
C3150      F3155   1.358       .  S
C3151      C3152   1.408       .  A
C3151      F3157   1.358       .  S
C3152      C3153   1.409       .  A
C3153      C3154   1.400       .  A
C3153      F3156   1.358       .  S
C3154      F3158   1.358       .  S
C3161      C3162   1.400       .  A
C3161      C3166   1.397       .  A
C3161      F3179   1.358       .  S
C3162      C3163   1.403       .  A
C3162      C3167   1.476       .  S
C3163      C3164   1.403       .  A
C3163      F3168   1.358       .  S
C3164      C3165   1.411       .  A
C3164      F3180   1.357       .  S
C3165      C3166   1.410       .  A
C3166      F3169   1.357       .  S
C3167      C3170   1.402       .  A
C3167      C3174   1.403       .  A
C3170      C3171   1.398       .  A
C3170      F3175   1.358       .  S
C3171      C3172   1.409       .  A
C3171      F3177   1.357       .  S
C3172      C3173   1.409       .  A
C3173      C3174   1.400       .  A
C3173      F3176   1.358       .  S
C3174      F3178   1.358       .  S
C3181      C3182   1.402       .  A
C3181      C3186   1.398       .  A
C3181      F3199   1.358       .  S
C3182      C3183   1.403       .  A
C3182      C3187   1.473       .  S
C3183      C3184   1.396       .  A
C3183      F3188   1.358       .  S
C3184      C3185   1.408       .  A
C3184      F3200   1.358       .  S
C3185      C3186   1.411       .  A
C3186      F3189   1.358       .  S
C3187      C3190   1.402       .  A
C3187      C3194   1.404       .  A
C3190      C3191   1.394       .  A
C3190      F3195   1.358       .  S
C3191      C3192   1.407       .  A
C3191      F3197   1.357       .  S
C3192      C3193   1.408       .  A
C3193      C3194   1.400       .  A
C3193      F3196   1.358       .  S
C3194      F3198   1.358       .  S
C3201      C3202   1.403       .  A
C3201      C3206   1.402       .  A
C3201      F3219   1.358       .  S
C3202      C3203   1.402       .  A
C3202      C3207   1.475       .  S
C3203      C3204   1.396       .  A
C3203      F3208   1.358       .  S
C3204      C3205   1.408       .  A
C3204      F3220   1.357       .  S
C3205      C3206   1.409       .  A
C3206      F3209   1.357       .  S
C3207      C3210   1.402       .  A
C3207      C3214   1.403       .  A
C3210      C3211   1.397       .  A
C3210      F3215   1.358       .  S
C3211      C3212   1.408       .  A
C3211      F3217   1.357       .  S
C3212      C3213   1.410       .  A
C3213      C3214   1.401       .  A
C3213      F3216   1.357       .  S
C3214      F3218   1.358       .  S
C3221      C3222   1.404       .  A
C3221      C3226   1.399       .  A
C3221      F3239   1.358       .  S
C3222      C3223   1.402       .  A
C3222      C3227   1.476       .  S
C3223      C3224   1.398       .  A
C3223      F3228   1.358       .  S
C3224      C3225   1.409       .  A
C3224      F3240   1.358       .  S
C3225      C3226   1.408       .  A
C3226      F3229   1.357       .  S
C3227      C3230   1.403       .  A
C3227      C3234   1.403       .  A
C3230      C3231   1.398       .  A
C3230      F3235   1.358       .  S
C3231      C3232   1.407       .  A
C3231      F3237   1.358       .  S
C3232      C3233   1.408       .  A
C3233      C3234   1.399       .  A
C3233      F3236   1.357       .  S
C3234      F3238   1.358       .  S
