geometry optimzed in LAMMPS
_audit_creation_date              2020-12-01 
_audit_creation_method            'lammps2cif' 
_symmetry_space_group_name_H-M    'P1' 
_symmetry_Int_Tables_number       1 
_symmetry_cell_setting            triclinic 
loop_ 
_symmetry_equiv_pos_as_xyz 
  x,y,z 
_cell_length_a                    44.42877428 
_cell_length_b                    43.22611451610418 
_cell_length_c                    28.92309610177491 
_cell_angle_alpha                 90.44564662090335 
_cell_angle_beta                  89.58674163455561 
_cell_angle_gamma                 90.08258805870018 
loop_ 
_atom_site_label 
_atom_site_type_symbol 
_atom_site_fract_x 
_atom_site_fract_y 
_atom_site_fract_z 
_atom_site_charge 
In1        In  0.44546894  0.65277575  0.73525347     1.36900
C2          C  0.42497497  0.63048450  0.65403049     0.77400
O3          O  0.48615124  0.62239430  0.74018762    -0.61000
O4          O  0.44706646  0.60881618  0.77756425    -0.51900
C5          C  0.98579376  0.69723753  0.75115594     0.70100
O6          O  0.97117974  0.69550482  0.71385199    -0.46800
C7          C  0.40098523  0.68277834  0.77834762     0.74800
O8          O  0.44895532  0.64603676  0.65673057    -0.58700
O9          O  0.41123193  0.65751975  0.79314700    -0.48700
O10         O  0.41125158  0.62779776  0.69202610    -0.55100
C11         C  0.47403649  0.60287541  0.76658166     0.85000
O12         O  0.48011428  0.67567028  0.77891088    -0.57000
O13         O  0.41290992  0.69190612  0.74126617    -0.60300
In14       In  0.13064943  0.36629441  0.72795546     1.36900
C15         C  0.14983875  0.39049918  0.64772761     0.77400
O16         O  0.08984520  0.39604059  0.74014340    -0.61000
O17         O  0.13085520  0.41140547  0.76913038    -0.51900
C18         C  0.08854520  0.32334887  0.74108579     0.70100
O19         O  0.09532514  0.33311272  0.70122186    -0.46800
C20         C  0.17708771  0.33548926  0.76330551     0.74800
O21         O  0.12997105  0.36960430  0.64910208    -0.58700
O22         O  0.16377844  0.35708135  0.78472794    -0.48700
O23         O  0.16066199  0.39735944  0.68660825    -0.55100
C24         C  0.10330671  0.41673851  0.76270741     0.85000
O25         O  0.10359375  0.33510434  0.77359670    -0.57000
O26         O  0.16708849  0.33021326  0.72329817    -0.60300
In27       In  0.45334366  0.65060405  0.40703383     1.36900
C28         C  0.42938714  0.62590941  0.48518112     0.77400
O29         O  0.41988493  0.68932146  0.39712700    -0.61000
O30         O  0.42251857  0.65423173  0.34584221    -0.51900
C31         C  0.99746351  0.69276346  0.39895377     0.70100
O32         O  0.98058271  0.69176213  0.43431353    -0.46800
C33         C  0.48116037  0.60042603  0.37420158     0.74800
O34         O  0.45432227  0.63986050  0.48451671    -0.58700
O35         O  0.45792382  0.61118960  0.35544287    -0.48700
O36         O  0.41622004  0.62592511  0.44673721    -0.55100
C37         C  0.41042207  0.67923703  0.35873340     0.85000
O38         O  0.49105775  0.67298360  0.36847252    -0.57000
O39         O  0.98978076  0.61520648  0.40941460    -0.60300
In40       In  0.13032225  0.36732548  0.39654311     1.36900
C41         C  0.14913265  0.39197626  0.47679620     0.77400
O42         O  0.16053610  0.32616131  0.40317840    -0.61000
O43         O  0.16798045  0.35685384  0.34682699    -0.51900
C44         C  0.08859640  0.32536269  0.37417386     0.70100
O45         O  0.09235319  0.33468250  0.41536928    -0.46800
C46         C  0.10476556  0.41615174  0.35746355     0.74800
O47         O  0.12640157  0.37444680  0.47449786    -0.58700
O48         O  0.13118869  0.40774163  0.34714694    -0.48700
O49         O  0.16253910  0.39574132  0.43869195    -0.55100
C50         C  0.17501419  0.33191508  0.36650032     0.85000
O51         O  0.10616946  0.33788063  0.34561193    -0.57000
O52         O  0.09210010  0.40002993  0.38801861    -0.60300
C53         C  0.38116703  0.57800617  0.57113326     0.86300
C54         C  0.38599723  0.60217013  0.60967890    -0.53900
C55         C  0.41439515  0.61437198  0.61144571     0.09200
C56         C  0.43501306  0.60312925  0.57097663     0.20200
C57         C  0.38877104  0.59709975  0.52751342    -0.54600
C58         C  0.41703476  0.60962469  0.52661879     0.09400
C59         C  0.40705666  0.55509642  0.57709601    -0.54200
C60         C  0.43531930  0.56732754  0.57508799     0.09900
H61         H  0.36854120  0.60894066  0.63459913     0.14400
H62         H  0.45762076  0.61393177  0.57010377     0.00200
H63         H  0.37280018  0.60128215  0.50001261     0.14700
H64         H  0.40286386  0.53070948  0.58364817     0.14500
C65         C  0.18652857  0.44763967  0.56328732     0.86300
C66         C  0.18335964  0.42639209  0.60540646    -0.53900
C67         C  0.15867655  0.40754012  0.60528222     0.09200
C68         C  0.13823330  0.41233676  0.56271253     0.20200
C69         C  0.18386339  0.42648914  0.52063738    -0.54600
C70         C  0.15858609  0.40843034  0.51963743     0.09400
C71         C  0.15633092  0.46549416  0.56551669    -0.54200
C72         C  0.13101356  0.44725103  0.56391542     0.09900
H73         H  0.19819250  0.42799764  0.63494784     0.14400
H74         H  0.11794362  0.39735240  0.56189357     0.00200
H75         H  0.19985658  0.42735072  0.49207121     0.14700
H76         H  0.15471080  0.49036205  0.56987473     0.14500
In77       In  0.20490577  0.85616177  0.22470354     1.36900
C78         C  0.17944409  0.88405625  0.15094008     0.77400
O79         O  0.16919183  0.81964217  0.23163564    -0.61000
O80         O  0.17118067  0.85483340  0.28322161    -0.51900
C81         C  0.24295040  0.80863313  0.23431158     0.70100
O82         O  0.23089399  0.81460766  0.19582128    -0.46800
C83         C  0.24211036  0.90059629  0.25655920     0.74800
O84         O  0.20212397  0.86655941  0.14718835    -0.58700
O85         O  0.21817861  0.89279756  0.27715313    -0.48700
O86         O  0.16950410  0.88641774  0.19172675    -0.55100
C87         C  0.15858182  0.83032261  0.26913616     0.85000
O88         O  0.23515247  0.82667073  0.26655410    -0.57000
O89         O  0.24608914  0.88605632  0.21910921    -0.60300
In90       In  0.38077700  0.14816482  0.22548050     1.36900
C91         C  0.40163293  0.12717590  0.14397611     0.77400
O92         O  0.40891011  0.19130879  0.22933173    -0.61000
O93         O  0.42059442  0.15362831  0.27242536    -0.51900
C94         C  0.33343147  0.18481876  0.24450677     0.70100
O95         O  0.34225013  0.17930456  0.20364191    -0.46800
C96         C  0.35712280  0.09540121  0.25717194     0.74800
O97         O  0.37898047  0.14470167  0.14688330    -0.58700
O98         O  0.37513908  0.11131283  0.28110330    -0.48700
O99         O  0.41483907  0.12301273  0.18191628    -0.55100
C100        C  0.42590995  0.18113714  0.26052288     0.85000
O101        O  0.34935945  0.17207694  0.27467206    -0.57000
O102        O  0.35258525  0.10610581  0.21762093    -0.60300
In103      In  0.37970934  0.15020997  0.89724424     1.36900
C104        C  0.39978449  0.12333583  0.97506426     0.77400
O105        O  0.34013372  0.11916231  0.89846168    -0.61000
O106        O  0.37313932  0.11072772  0.84625430    -0.51900
C107        C  0.33748284  0.19188222  0.88038278     0.70100
O108        O  0.34785203  0.18800482  0.92063835    -0.46800
C109        C  0.42561558  0.18198909  0.86134403     0.74800
O110        O  0.37831504  0.14246939  0.97515655    -0.58700
O111        O  0.41792908  0.15562120  0.84634092    -0.48700
O112        O  0.41187695  0.11940268  0.93591139    -0.55100
C113        C  0.34856088  0.10257527  0.86484285     0.85000
O114        O  0.34929582  0.17503752  0.84945744    -0.57000
O115        O  0.41048984  0.19128764  0.89584787    -0.60300
In116      In  0.19469950  0.86865561  0.90047500     1.35700
C117        C  0.17534653  0.89128944  0.98248088     0.77400
O118        O  0.23361356  0.90134661  0.89556436    -0.61000
O119        O  0.19651827  0.90895024  0.85124681    -0.51900
C120        C  0.23522792  0.82449450  0.88372808     0.70100
O121        O  0.22149711  0.82694266  0.92201476    -0.46800
C122        C  0.14917843  0.83892212  0.86080089     0.74800
O123        O  0.20016760  0.87746487  0.97787986    -0.58700
O124        O  0.15837207  0.86492591  0.84704391    -0.48700
O125        O  0.16049911  0.89292848  0.94566712    -0.55100
C126        C  0.22249023  0.91729859  0.86364003     0.85000
O127        O  0.22812749  0.84473794  0.85475903    -0.57000
O128        O  0.16269698  0.82871981  0.89567659    -0.60300
C129        C  0.13245469  0.93898528  0.07491543     0.86300
C130        C  0.13746218  0.92015914  0.02992902    -0.53900
C131        C  0.16477395  0.90564905  0.02653390     0.09200
C132        C  0.18516454  0.91158941  0.06868643     0.20200
C133        C  0.13918368  0.91652443  0.11466630    -0.54600
C134        C  0.16668167  0.90222979  0.11188404     0.09400
C135        C  0.15961188  0.96120516  0.07357465    -0.54200
C136        C  0.18695161  0.94712160  0.07126799     0.09900
H137        H  0.12173666  0.92046076  0.00137569     0.14400
H138        H  0.20760849  0.90040657  0.06605101     0.00200
H139        H  0.12386557  0.91340763  0.14391654     0.14700
H140        H  0.15777712  0.98610415  0.07083973     0.14500
C141        C  0.43885890  0.06893252  0.06193021     0.86300
C142        C  0.43505512  0.08871390  0.01792644    -0.53900
C143        C  0.40904924  0.10551709  0.01654529     0.09200
C144        C  0.38948284  0.10211957  0.06028386     0.20200
C145        C  0.43702783  0.09363669  0.10029618    -0.54600
C146        C  0.41078868  0.11021066  0.10121355     0.09400
C147        C  0.40966337  0.05043559  0.06750308    -0.54200
C148        C  0.38343921  0.06675800  0.06434447     0.09900
H149        H  0.45193903  0.09094635  0.99136642     0.14400
H150        H  0.36931148  0.11685954  0.05802050     0.00200
H151        H  0.45426942  0.09670061  0.12617644     0.14700
H152        H  0.41017983  0.02594919  0.07511800     0.14500
C153        C  0.21528747  0.96514653  0.06797037     0.01200
C154        C  0.23613855  0.96429932  0.10429408     0.04000
C155        C  0.26305269  0.98111300  0.10133812    -0.12100
C156        C  0.26845537  0.00063805  0.06361616     0.23300
C157        C  0.24675505  0.00327756  0.02858747    -0.12600
C158        C  0.22059449  0.98488478  0.03008183     0.04700
C159        C  0.29705944  0.01827643  0.06151409     0.27100
C160        C  0.29856789  0.04837314  0.07973721    -0.13300
C161        C  0.32643858  0.06399374  0.08231821     0.05200
C162        C  0.35307690  0.05048868  0.06301343    -0.09300
C163        C  0.35046364  0.02030424  0.04240041     0.06000
C164        C  0.32322413  0.00378758  0.04499684    -0.13700
Br165      Br  0.25219048  0.03298039  0.97987630    -0.05700
Br166      Br  0.22668081  0.94310671  0.16044334    -0.00100
Br167      Br  0.32639540  0.10246609  0.11597953     0.00400
Br168      Br  0.32186776  0.96034812  0.02812934    -0.04100
Br169      Br  0.19216503  0.98678520  0.98017018     0.00500
Br170      Br  0.29265230  0.97783999  0.14921110    -0.03400
Br171      Br  0.26212551  0.06716389  0.10395436    -0.04200
Br172      Br  0.38152507  0.00186892  0.00347859    -0.00200
C173        C  0.10129572  0.95522705  0.07902833     0.01200
C174        C  0.09844369  0.98572643  0.09767015     0.04000
C175        C  0.07247330  0.00334868  0.08937989    -0.12100
C176        C  0.04649961  0.98920216  0.07164826     0.23300
C177        C  0.04701193  0.95722206  0.06161281    -0.12600
C178        C  0.07426410  0.94034815  0.06436401     0.04700
C179        C  0.01802135  0.00749195  0.06850421     0.27100
C180        C  0.00162458  0.01492785  0.10886223    -0.13300
C181        C  0.47578593  0.03386621  0.10672017     0.05200
C182        C  0.46633836  0.04667185  0.06373165    -0.09300
C183        C  0.48015392  0.03424915  0.02277277     0.06000
C184        C  0.00700219  0.01691771  0.02545579    -0.13700
Br185      Br  0.00993637  0.93650217  0.04554055    -0.05700
Br186      Br  0.12521638  0.00124075  0.14501416    -0.00100
Br187      Br  0.45192104  0.03795119  0.16280418     0.00400
Br188      Br  0.02882839  0.00573638  0.96976399    -0.04100
Br189      Br  0.07292494  0.89631859  0.05207750     0.00500
Br190      Br  0.07227732  0.04715808  0.10320927    -0.03400
Br191      Br  0.01468399  0.99846903  0.16740258    -0.04200
Br192      Br  0.45989414  0.03307137  0.96371606    -0.00200
C193        C  0.33166731  0.07452797  0.85158589     0.01200
C194        C  0.32614759  0.05219975  0.88567516     0.04000
C195        C  0.31018386  0.02521095  0.87490055    -0.12100
C196        C  0.29632680  0.02196978  0.83157196     0.23300
C197        C  0.30123397  0.04452526  0.79732461    -0.12600
C198        C  0.31983603  0.07033190  0.80685662     0.04700
C199        C  0.27528992  0.99562795  0.82469824     0.27100
C200        C  0.28692559  0.96565533  0.81774551    -0.13300
C201        C  0.26900527  0.93968498  0.82794902     0.05200
C202        C  0.23897104  0.94365708  0.84313448    -0.09300
C203        C  0.22610481  0.97345535  0.84319208     0.06000
C204        C  0.24449065  0.99949955  0.83541028    -0.13700
Br205      Br  0.28212673  0.04015622  0.73810477    -0.05700
Br206      Br  0.33956367  0.05917659  0.94787761    -0.00100
Br207      Br  0.28582721  0.89869238  0.82188686     0.00400
Br208      Br  0.22828543  0.04054512  0.84408839    -0.04100
Br209      Br  0.32749620  0.10077305  0.75993718     0.00500
Br210      Br  0.30786212  0.99222764  0.91923220    -0.03400
Br211      Br  0.32840142  0.96057035  0.79900925    -0.04200
Br212      Br  0.18392024  0.97892959  0.85706178    -0.00200
C213        C  0.26334069  0.92528390  0.27346714     0.01200
C214        C  0.29266004  0.92812092  0.25370881     0.04000
C215        C  0.31024720  0.95470510  0.26242250    -0.12100
C216        C  0.29948045  0.97803130  0.29242253     0.23300
C217        C  0.27297809  0.97285781  0.31809703    -0.12600
C218        C  0.25439450  0.94722406  0.30783342     0.04700
C219        C  0.31297296  0.00962803  0.29063217     0.27100
C220        C  0.34150424  0.01602537  0.30964264    -0.13300
C221        C  0.35629275  0.04416771  0.29945236     0.05200
C222        C  0.34149442  0.06698958  0.27319922    -0.09300
C223        C  0.31146568  0.06182634  0.25922604     0.06000
C224        C  0.29776596  0.03295762  0.26625754    -0.13700
Br225      Br  0.26179957  0.00214254  0.36597519    -0.05700
Br226      Br  0.30981991  0.89600746  0.21476553    -0.00100
Br227      Br  0.39752350  0.04987765  0.31816406     0.00400
Br228      Br  0.25838886  0.02519887  0.24046046    -0.04100
Br229      Br  0.21607451  0.94449443  0.33953459     0.00500
Br230      Br  0.34860813  0.96000954  0.23121995    -0.03400
Br231      Br  0.36029047  0.98592571  0.34896508    -0.04200
Br232      Br  0.28815113  0.09462240  0.23178827    -0.00200
C233        C  0.46312681  0.54729965  0.57489091     0.01200
C234        C  0.46404059  0.51867320  0.54980366     0.04000
C235        C  0.99040768  0.50062137  0.54914492    -0.12100
C236        C  0.01681941  0.51186540  0.56966229     0.23300
C237        C  0.01622224  0.53969469  0.59474745    -0.12600
C238        C  0.48933319  0.55654155  0.59917002     0.04700
C239        C  0.04512462  0.49391523  0.56626524     0.27100
C240        C  0.04988325  0.46890293  0.59596892    -0.13300
C241        C  0.07732746  0.45277297  0.59468893     0.05200
C242        C  0.10001978  0.46087606  0.56235528    -0.09300
C243        C  0.09353459  0.48393910  0.52948738     0.06000
C244        C  0.06724063  0.50176564  0.53342094    -0.13700
Br245      Br  0.05261025  0.55443236  0.62370891    -0.05700
Br246      Br  0.43134951  0.50423940  0.51135111    -0.00100
Br247      Br  0.08240488  0.41994983  0.63777658     0.00400
Br248      Br  0.06241666  0.53794874  0.49548080    -0.04100
Br249      Br  0.48910655  0.59003001  0.64280494     0.00500
Br250      Br  0.99050812  0.46008765  0.52026279    -0.03400
Br251      Br  0.01877057  0.45729255  0.63928924    -0.04200
Br252      Br  0.11801860  0.48830084  0.47497602    -0.00200
C253        C  0.35085393  0.55994481  0.57063332     0.01200
C254        C  0.33569044  0.55179772  0.61267723     0.04000
C255        C  0.30775471  0.53619245  0.61168731    -0.12100
C256        C  0.29645854  0.52439719  0.56995098     0.23300
C257        C  0.31293889  0.52866606  0.52885993    -0.12600
C258        C  0.34029485  0.54530907  0.52912390     0.04700
C259        C  0.26860332  0.50502685  0.56945138     0.27100
C260        C  0.26994956  0.47336707  0.58033961    -0.13300
C261        C  0.24405800  0.45444945  0.57649561     0.05200
C262        C  0.21593385  0.46730040  0.56255604    -0.09300
C263        C  0.21667393  0.49800631  0.54491476     0.06000
C264        C  0.24181835  0.51726388  0.55206287    -0.13700
Br265      Br  0.29817574  0.51035904  0.47199073    -0.05700
Br266      Br  0.35500981  0.55438908  0.67238747    -0.00100
Br267      Br  0.24939199  0.41033828  0.58443390     0.00400
Br268      Br  0.24023520  0.56053555  0.53578179    -0.04100
Br269      Br  0.36457043  0.54199632  0.47336981     0.00500
Br270      Br  0.28491818  0.53000221  0.66798063    -0.03400
Br271      Br  0.30793929  0.45583362  0.59905847    -0.04200
Br272      Br  0.18872033  0.51182444  0.49908122    -0.00200
C273        C  0.30693286  0.20459402  0.25708525     0.01200
C274        C  0.29827879  0.23003553  0.22945389     0.04000
C275        C  0.27543946  0.25042831  0.24495525    -0.12100
C276        C  0.26125260  0.24584455  0.28805302     0.23300
C277        C  0.26858509  0.21976347  0.31442849    -0.12600
C278        C  0.29080692  0.19890261  0.29873992     0.04700
C279        C  0.23907473  0.26871733  0.30648164     0.27100
C280        C  0.24914759  0.29504868  0.33110551    -0.13300
C281        C  0.22820524  0.31596556  0.35055417     0.05200
C282        C  0.19717337  0.31016558  0.34655415    -0.09300
C283        C  0.18706951  0.28354227  0.32280686     0.06000
C284        C  0.20794614  0.26327686  0.30184063    -0.13700
Br285      Br  0.24839958  0.21309998  0.37292820    -0.05700
Br286      Br  0.31794316  0.23827614  0.17109592    -0.00100
Br287      Br  0.24181933  0.35187218  0.38446399     0.00400
Br288      Br  0.19398202  0.22806048  0.26665036    -0.04100
Br289      Br  0.29740662  0.16166011  0.33389014     0.00500
Br290      Br  0.26368164  0.28521137  0.20774984    -0.03400
Br291      Br  0.29168096  0.30195326  0.33905676    -0.04200
Br292      Br  0.14458249  0.27449140  0.31966280    -0.00200
C293        C  0.44969052  0.20026183  0.28213414     0.01200
C294        C  0.47981473  0.18996423  0.28245884     0.04000
C295        C  0.50250459  0.20893669  0.30131493    -0.12100
C296        C  0.49517384  0.23819954  0.31998171     0.23300
C297        C  0.46496075  0.24799108  0.32134206    -0.12600
C298        C  0.44224260  0.22906177  0.30254915     0.04700
C299        C  0.51949003  0.25984989  0.33408601     0.27100
C300        C  0.03107546  0.25941578  0.37918211    -0.13300
C301        C  0.05421476  0.28007771  0.39204914     0.05200
C302        C  0.06549841  0.30198790  0.35994149    -0.09300
C303        C  0.05456393  0.30112562  0.31376508     0.06000
C304        C  0.03141877  0.28046221  0.30141077    -0.13700
Br305      Br  0.45500427  0.28774019  0.34814987    -0.05700
Br306      Br  0.49038458  0.15074336  0.25455051    -0.00100
Br307      Br  0.07187605  0.27580053  0.45251044     0.00400
Br308      Br  0.01557962  0.28020492  0.23924398    -0.04100
Br309      Br  0.40077105  0.24221655  0.30628640     0.00500
Br310      Br  0.04390840  0.19549680  0.30027081    -0.03400
Br311      Br  0.51508601  0.23017527  0.42309953    -0.04200
Br312      Br  0.07081173  0.32724065  0.26558144    -0.00200
C313        C  0.13382020  0.81472092  0.29479364     0.01200
C314        C  0.10775037  0.80489069  0.27119296     0.04000
C315        C  0.08578176  0.78698870  0.29409587    -0.12100
C316        C  0.08967656  0.77866620  0.34070660     0.23300
C317        C  0.11489399  0.78976812  0.36504254    -0.12600
C318        C  0.13679891  0.80795864  0.34232697     0.04700
C319        C  0.06803564  0.75676121  0.36279409     0.27100
C320        C  0.04210602  0.76773843  0.38598670    -0.13300
C321        C  0.01972236  0.74679407  0.40119156     0.05200
C322        C  0.02298884  0.71472966  0.39240522    -0.09300
C323        C  0.05019128  0.70373997  0.37255801     0.06000
C324        C  0.07252516  0.72466877  0.35778605    -0.13700
Br325      Br  0.11971017  0.77915574  0.42920264    -0.05700
Br326      Br  0.10143163  0.81697881  0.20787708    -0.00100
Br327      Br  0.48414202  0.76250565  0.43171837     0.00400
Br328      Br  0.10907514  0.70948746  0.32918383    -0.04100
Br329      Br  0.17152222  0.82215481  0.37617200     0.00500
Br330      Br  0.05036338  0.77331258  0.26150183    -0.03400
Br331      Br  0.03691095  0.81166347  0.39498953    -0.04200
Br332      Br  0.05743995  0.65979029  0.36641517    -0.00200
C333        C  0.38706309  0.69543688  0.33114113     0.01200
C334        C  0.38804801  0.72795999  0.32637500     0.04000
C335        C  0.36444129  0.74371455  0.30433769    -0.12100
C336        C  0.33998740  0.72711958  0.28566771     0.23300
C337        C  0.34007855  0.69453091  0.28710119    -0.12600
C338        C  0.36344325  0.67869277  0.30978914     0.04700
C339        C  0.31308129  0.74418044  0.26862548     0.27100
C340        C  0.28815830  0.74844534  0.29833015    -0.13300
C341        C  0.26388998  0.76711023  0.28477795     0.05200
C342        C  0.26499515  0.78328871  0.24244977    -0.09300
C343        C  0.28923788  0.77764884  0.21153595     0.06000
C344        C  0.31292610  0.75770080  0.22436996    -0.13700
Br345      Br  0.30750368  0.67177815  0.25901752    -0.05700
Br346      Br  0.42253848  0.75108577  0.34747984    -0.00100
Br347      Br  0.22866569  0.76955023  0.32410223     0.00400
Br348      Br  0.34581870  0.74958431  0.18217377    -0.04100
Br349      Br  0.36183981  0.63413225  0.31329773     0.00500
Br350      Br  0.36505708  0.78831014  0.30089645    -0.03400
Br351      Br  0.28800550  0.72991291  0.35890970    -0.04200
Br352      Br  0.29150335  0.79883424  0.15316256    -0.00200
C353        C  0.08933750  0.44283800  0.33656767     0.01200
C354        C  0.10251723  0.47254389  0.33782668     0.04000
C355        C  0.08451273  0.49881537  0.33027944    -0.12100
C356        C  0.05357128  0.49528935  0.32100031     0.23300
C357        C  0.04166916  0.46559443  0.31290869    -0.12600
C358        C  0.05941561  0.43937595  0.32119820     0.04700
C359        C  0.03267354  0.52116752  0.33163305     0.27100
C360        C  0.01948237  0.52258939  0.37600966    -0.13300
C361        C  0.50231899  0.54839272  0.38931936     0.05200
C362        C  0.99692332  0.57229960  0.35774693    -0.09300
C363        C  0.00803650  0.56972015  0.31199887     0.06000
C364        C  0.02640645  0.54437576  0.29920010    -0.13700
Br365      Br  0.99991559  0.46109494  0.29614674    -0.05700
Br366      Br  0.14416458  0.47765345  0.35478827    -0.00100
Br367      Br  0.48560308  0.55084829  0.45075132     0.00400
Br368      Br  0.04327250  0.54134864  0.23778903    -0.04100
Br369      Br  0.04207567  0.39876847  0.31367144     0.00500
Br370      Br  0.10138247  0.53973061  0.33695018    -0.03400
Br371      Br  0.52476625  0.48874848  0.41833725    -0.04200
Br372      Br  0.99933026  0.60141387  0.26759859    -0.00200
C373        C  0.20181924  0.31722105  0.78388154     0.01200
C374        C  0.19838851  0.30467764  0.82862232     0.04000
C375        C  0.22122471  0.28611987  0.84742644    -0.12100
C376        C  0.24746267  0.27961539  0.82156563     0.23300
C377        C  0.25121947  0.29254462  0.77728080    -0.12600
C378        C  0.22850502  0.31129886  0.75845920     0.04700
C379        C  0.26985613  0.25707202  0.83921741     0.27100
C380        C  0.29325326  0.26670852  0.86875799    -0.13300
C381        C  0.31526653  0.24537680  0.88304014     0.05200
C382        C  0.31322126  0.21404241  0.86935865    -0.09300
C383        C  0.28866806  0.20412375  0.84221957     0.06000
C384        C  0.26749698  0.22567295  0.82634897    -0.13700
Br385      Br  0.28739213  0.28393798  0.74216964    -0.05700
Br386      Br  0.16139847  0.31057205  0.86300591    -0.00100
Br387      Br  0.34918904  0.25956964  0.91872048     0.00400
Br388      Br  0.23517612  0.21227978  0.78660445    -0.04100
Br389      Br  0.23442358  0.32937797  0.69821583     0.00500
Br390      Br  0.21628577  0.26859810  0.90818100    -0.03400
Br391      Br  0.29508147  0.30915706  0.88943513    -0.04200
Br392      Br  0.28291457  0.16069447  0.82875652    -0.00200
C393        C  0.44984293  0.20101695  0.83980660     0.01200
C394        C  0.45262818  0.20297136  0.79107871     0.04000
C395        C  0.47464027  0.22238360  0.77098738    -0.12100
C396        C  0.49380723  0.24026390  0.79926027     0.23300
C397        C  0.49104169  0.23833303  0.84778077    -0.12600
C398        C  0.46949969  0.21855999  0.86795705     0.04700
C399        C  0.51780958  0.26018660  0.77860466     0.27100
C400        C  0.04820460  0.25089396  0.78110394    -0.13300
C401        C  0.07137554  0.27130611  0.76776452     0.05200
C402        C  0.06432238  0.30062280  0.74991211    -0.09300
C403        C  0.03395932  0.30932463  0.74492735     0.06000
C404        C  0.01074201  0.28937166  0.75988996    -0.13700
Br405      Br  0.01708641  0.26285231  0.88684443    -0.05700
Br406      Br  0.42561939  0.18024583  0.75119699    -0.00100
Br407      Br  0.11291045  0.25938171  0.77480340     0.00400
Br408      Br  0.46941119  0.30284222  0.75735975    -0.04100
Br409      Br  0.46849627  0.21431131  0.93440964     0.00500
Br410      Br  0.47874818  0.22438006  0.70458282    -0.03400
Br411      Br  0.05807049  0.21047325  0.80450677    -0.04200
Br412      Br  0.02434461  0.34962125  0.72080941    -0.00200
C413        C  0.00759167  0.72242156  0.76227294     0.01200
C414        C  0.01192163  0.73179648  0.80896079     0.04000
C415        C  0.03349925  0.75445375  0.81990986    -0.12100
C416        C  0.05116269  0.76780221  0.78485341     0.23300
C417        C  0.04637488  0.75955167  0.73835106    -0.12600
C418        C  0.02477909  0.73684111  0.72692906     0.04700
C419        C  0.07724624  0.78727211  0.79819681     0.27100
C420        C  0.07366875  0.81913958  0.80709620    -0.13300
C421        C  0.09733777  0.83626001  0.82703435     0.05200
C422        C  0.12475128  0.82152098  0.83776650    -0.09300
C423        C  0.12854369  0.78976952  0.82729585     0.06000
C424        C  0.10484848  0.77276311  0.80759130    -0.13700
Br425      Br  0.07051421  0.77866696  0.69071207    -0.05700
Br426      Br  0.98880656  0.71414868  0.85924246    -0.00100
Br427      Br  0.09102838  0.87915200  0.84347268     0.00400
Br428      Br  0.10952941  0.72900452  0.79530932    -0.04100
Br429      Br  0.02124165  0.72400394  0.66306958     0.00500
Br430      Br  0.03996759  0.76666889  0.88357723    -0.03400
Br431      Br  0.03577535  0.83878738  0.79396833    -0.04200
Br432      Br  0.16613976  0.76915778  0.83949631    -0.00200
C433        C  0.25806723  0.80028309  0.87331396     0.01200
C434        C  0.27841770  0.79064834  0.90778524     0.04000
C435        C  0.30088223  0.76869804  0.89709960    -0.12100
C436        C  0.30397288  0.75716641  0.85168789     0.23300
C437        C  0.28391122  0.76671628  0.81722383    -0.12600
C438        C  0.26072866  0.78775246  0.82799770     0.04700
C439        C  0.32990637  0.73723433  0.83868507     0.27100
C440        C  0.35757000  0.75108886  0.82683329    -0.13300
C441        C  0.38142696  0.73282031  0.80995319     0.05200
C442        C  0.37719072  0.70081244  0.80224231    -0.09300
C443        C  0.34960766  0.68685073  0.81480135     0.06000
C444        C  0.32630882  0.70495406  0.83423838    -0.13700
Br445      Br  0.28931961  0.75193730  0.75444430    -0.05700
Br446      Br  0.27797555  0.80954392  0.96853788    -0.00100
Br447      Br  0.42013895  0.75176191  0.79850548     0.00400
Br448      Br  0.28906394  0.68590934  0.85358804    -0.04100
Br449      Br  0.23282538  0.79873259  0.77984600     0.00500
Br450      Br  0.32840075  0.75517504  0.94410175    -0.03400
Br451      Br  0.36217457  0.79543908  0.83157463    -0.04200
Br452      Br  0.34254413  0.64367424  0.80133218    -0.00200
C453        C  0.08788506  0.44541588  0.77797263     0.01200
C454        C  0.06449602  0.44417045  0.81111416     0.04000
C455        C  0.04619287  0.47031606  0.81948166    -0.12100
C456        C  0.05070337  0.49756896  0.79383274     0.23300
C457        C  0.07581998  0.49957629  0.76371450    -0.12600
C458        C  0.09423206  0.47353393  0.75558390     0.04700
C459        C  0.02792477  0.52304404  0.79498809     0.27100
C460        C  0.00098569  0.51995711  0.76965468    -0.13300
C461        C  0.48238641  0.54581460  0.76241039     0.05200
C462        C  0.99020856  0.57477714  0.78139975    -0.09300
C463        C  0.01525351  0.57712541  0.81094244     0.06000
C464        C  0.03400222  0.55125183  0.81792159    -0.13700
Br465      Br  0.08481973  0.53787392  0.73286975    -0.05700
Br466      Br  0.05748907  0.40644042  0.84462868    -0.00100
Br467      Br  0.44704616  0.54195822  0.72425119     0.00400
Br468      Br  0.06799292  0.55416006  0.85878295    -0.04100
Br469      Br  0.12683174  0.47574726  0.71115168     0.00500
Br470      Br  0.01477648  0.46895156  0.86572284    -0.03400
Br471      Br  0.48929797  0.48030479  0.74493762    -0.04200
Br472      Br  0.02355585  0.61574788  0.84210024    -0.00200
In473      In  0.94546896  0.65277571  0.73525117     1.36900
C474        C  0.92497458  0.63048438  0.65402866     0.77400
O475        O  0.98615204  0.62239534  0.74018630    -0.61000
O476        O  0.94706715  0.60881572  0.77756127    -0.51900
C477        C  0.48579398  0.69723733  0.75115937     0.70100
O478        O  0.47117988  0.69550507  0.71385546    -0.46800
C479        C  0.90098541  0.68277861  0.77834517     0.74800
O480        O  0.94895471  0.64603701  0.65672833    -0.58700
O481        O  0.91123176  0.65751983  0.79314443    -0.48700
O482        O  0.91125153  0.62779731  0.69202450    -0.55100
C483        C  0.97403753  0.60287585  0.76657958     0.85000
O484        O  0.98011414  0.67567077  0.77890802    -0.57000
O485        O  0.91291044  0.69190645  0.74126403    -0.60300
In486      In  0.63064787  0.36629377  0.72795430     1.36900
C487        C  0.64983744  0.39049887  0.64772652     0.77400
O488        O  0.58984281  0.39603840  0.74014607    -0.61000
O489        O  0.63085336  0.41140510  0.76912878    -0.51900
C490        C  0.58854401  0.32334791  0.74108385     0.70100
O491        O  0.59532182  0.33311418  0.70122038    -0.46800
C492        C  0.67708600  0.33548817  0.76330431     0.74800
O493        O  0.62996963  0.36960406  0.64910073    -0.58700
O494        O  0.66377640  0.35707986  0.78472721    -0.48700
O495        O  0.66066058  0.39735892  0.68660732    -0.55100
C496        C  0.60330438  0.41673700  0.76270857     0.85000
O497        O  0.60359467  0.33510098  0.77359431    -0.57000
O498        O  0.66708720  0.33021280  0.72329650    -0.60300
In499      In  0.95334278  0.65060448  0.40703253     1.36900
C500        C  0.92938650  0.62590977  0.48517986     0.77400
O501        O  0.91988363  0.68932166  0.39712614    -0.61000
O502        O  0.92252005  0.65423402  0.34583831    -0.51900
C503        C  0.49746412  0.69276342  0.39895442     0.70100
O504        O  0.48058321  0.69176220  0.43431404    -0.46800
C505        C  0.98115895  0.60042572  0.37420162     0.74800
O506        O  0.95432203  0.63986005  0.48451503    -0.58700
O507        O  0.95792047  0.61118715  0.35544571    -0.48700
O508        O  0.91621874  0.62592663  0.44673651    -0.55100
C509        C  0.91042238  0.67923844  0.35873090     0.85000
O510        O  0.99105669  0.67298413  0.36847136    -0.57000
O511        O  0.48978003  0.61520432  0.40941816    -0.60300
In512      In  0.63032161  0.36732536  0.39654200     1.36900
C513        C  0.64913209  0.39197596  0.47679514     0.77400
O514        O  0.66053558  0.32616150  0.40317932    -0.61000
O515        O  0.66797995  0.35685312  0.34682672    -0.51900
C516        C  0.58859524  0.32536290  0.37417238     0.70100
O517        O  0.59235174  0.33468317  0.41536761    -0.46800
C518        C  0.60476608  0.41615216  0.35746238     0.74800
O519        O  0.62640077  0.37444681  0.47449665    -0.58700
O520        O  0.63118886  0.40774119  0.34714515    -0.48700
O521        O  0.66253869  0.39574085  0.43869098    -0.55100
C522        C  0.67501384  0.33191484  0.36650122     0.85000
O523        O  0.60616883  0.33788016  0.34561051    -0.57000
O524        O  0.59210053  0.40003098  0.38801808    -0.60300
C525        C  0.88116713  0.57800544  0.57113158     0.86300
C526        C  0.88599707  0.60216938  0.60967735    -0.53900
C527        C  0.91439481  0.61437167  0.61144410     0.09200
C528        C  0.93501285  0.60312928  0.57097509     0.20200
C529        C  0.88877086  0.59709924  0.52751183    -0.54600
C530        C  0.91703443  0.60962458  0.52661731     0.09400
C531        C  0.90705707  0.55509601  0.57709409    -0.54200
C532        C  0.93531957  0.56732761  0.57508652     0.09900
H533        H  0.86854096  0.60893957  0.63459781     0.14400
H534        H  0.95762046  0.61393207  0.57010235     0.00200
H535        H  0.87280002  0.60128157  0.50001132     0.14700
H536        H  0.90286466  0.53070895  0.58364561     0.14500
C537        C  0.68652800  0.44763931  0.56328648     0.86300
C538        C  0.68335860  0.42639192  0.60540580    -0.53900
C539        C  0.65867544  0.40754003  0.60528128     0.09200
C540        C  0.63823252  0.41233667  0.56271117     0.20200
C541        C  0.68386302  0.42648857  0.52063665    -0.54600
C542        C  0.65858556  0.40842992  0.51963646     0.09400
C543        C  0.65633043  0.46549397  0.56551510    -0.54200
C544        C  0.63101303  0.44725098  0.56391342     0.09900
H545        H  0.69819122  0.42799749  0.63494741     0.14400
H546        H  0.61794265  0.39735253  0.56189219     0.00200
H547        H  0.69985632  0.42734996  0.49207078     0.14700
H548        H  0.65471032  0.49036183  0.56987320     0.14500
In549      In  0.70490455  0.85616303  0.22470374     1.36900
C550        C  0.67944385  0.88405807  0.15094003     0.77400
O551        O  0.66919095  0.81964311  0.23163656    -0.61000
O552        O  0.67117810  0.85483614  0.28322002    -0.51900
C553        C  0.74294975  0.80863479  0.23431204     0.70100
O554        O  0.73089170  0.81460782  0.19582243    -0.46800
C555        C  0.74210875  0.90059751  0.25655963     0.74800
O556        O  0.70212419  0.86656181  0.14718881    -0.58700
O557        O  0.71817872  0.89279643  0.27715632    -0.48700
O558        O  0.66950282  0.88641853  0.19172624    -0.55100
C559        C  0.65858000  0.83032463  0.26913579     0.85000
O560        O  0.73515318  0.82667358  0.26655380    -0.57000
O561        O  0.74608583  0.88606005  0.21910703    -0.60300
In562      In  0.88077736  0.14816573  0.22547968     1.36900
C563        C  0.90163353  0.12717663  0.14397551     0.77400
O564        O  0.90891058  0.19130984  0.22933097    -0.61000
O565        O  0.92059508  0.15362936  0.27242432    -0.51900
C566        C  0.83343148  0.18481939  0.24450630     0.70100
O567        O  0.84225027  0.17930562  0.20364135    -0.46800
C568        C  0.85712312  0.09540154  0.25716984     0.74800
O569        O  0.87898109  0.14470249  0.14688243    -0.58700
O570        O  0.87513833  0.11131368  0.28110241    -0.48700
O571        O  0.91483959  0.12301359  0.18191579    -0.55100
C572        C  0.92591059  0.18113822  0.26052192     0.85000
O573        O  0.84935953  0.17207736  0.27467128    -0.57000
O574        O  0.85258664  0.10610591  0.21761838    -0.60300
In575      In  0.87971007  0.15021105  0.89724377     1.36900
C576        C  0.89978537  0.12333668  0.97506379     0.77400
O577        O  0.84013430  0.11916371  0.89846002    -0.61000
O578        O  0.87314031  0.11072914  0.84625323    -0.51900
C579        C  0.83748337  0.19188318  0.88038194     0.70100
O580        O  0.84785218  0.18800554  0.92063772    -0.46800
C581        C  0.92561639  0.18198989  0.86134386     0.74800
O582        O  0.87831591  0.14247024  0.97515614    -0.58700
O583        O  0.91793006  0.15562188  0.84634106    -0.48700
O584        O  0.91187770  0.11940353  0.93591084    -0.55100
C585        C  0.84856168  0.10257678  0.86484121     0.85000
O586        O  0.84929701  0.17503895  0.84945662    -0.57000
O587        O  0.91049038  0.19128878  0.89584724    -0.60300
In588      In  0.69470095  0.86865645  0.90047578     1.35700
C589        C  0.67534729  0.89129054  0.98248116     0.77400
O590        O  0.73361433  0.90134849  0.89556675    -0.61000
O591        O  0.69652024  0.90895041  0.85124615    -0.51900
C592        C  0.73522962  0.82449549  0.88372889     0.70100
O593        O  0.72149867  0.82694350  0.92201549    -0.46800
C594        C  0.64917983  0.83892222  0.86080252     0.74800
O595        O  0.70016852  0.87746618  0.97788065    -0.58700
O596        O  0.65837280  0.86492633  0.84704575    -0.48700
O597        O  0.66050003  0.89292914  0.94566720    -0.55100
C598        C  0.72249161  0.91729967  0.86364101     0.85000
O599        O  0.72812946  0.84473923  0.85476013    -0.57000
O600        O  0.66269925  0.82871983  0.89567737    -0.60300
C601        C  0.63245483  0.93898693  0.07491455     0.86300
C602        C  0.63746252  0.92016042  0.02992849    -0.53900
C603        C  0.66477439  0.90565047  0.02653380     0.09200
C604        C  0.68516482  0.91159135  0.06868637     0.20200
C605        C  0.63918380  0.91652644  0.11466585    -0.54600
C606        C  0.66668184  0.90223189  0.11188396     0.09400
C607        C  0.65961182  0.96120695  0.07357345    -0.54200
C608        C  0.68695159  0.94712359  0.07126719     0.09900
H609        H  0.62173697  0.92046167  0.00137498     0.14400
H610        H  0.70760887  0.90040867  0.06605134     0.00200
H611        H  0.62386562  0.91340967  0.14391578     0.14700
H612        H  0.65777691  0.98610595  0.07083792     0.14500
C613        C  0.93885946  0.06893286  0.06192975     0.86300
C614        C  0.93505596  0.08871455  0.01792614    -0.53900
C615        C  0.90905016  0.10551786  0.01654481     0.09200
C616        C  0.88948362  0.10212032  0.06028315     0.20200
C617        C  0.93702832  0.09363688  0.10029598    -0.54600
C618        C  0.91078930  0.11021111  0.10121314     0.09400
C619        C  0.90966370  0.05043616  0.06750212    -0.54200
C620        C  0.88343966  0.06675880  0.06434335     0.09900
H621        H  0.95194009  0.09094722  0.99136631     0.14400
H622        H  0.86931251  0.11686057  0.05801953     0.00200
H623        H  0.95426982  0.09670061  0.12617644     0.14700
H624        H  0.91017996  0.02594973  0.07511702     0.14500
C625        C  0.71528721  0.96514878  0.06796954     0.01200
C626        C  0.73613784  0.96430232  0.10429384     0.04000
C627        C  0.76305214  0.98111568  0.10133752    -0.12100
C628        C  0.76845520  0.00063995  0.06361476     0.23300
C629        C  0.74675502  0.00327921  0.02858584    -0.12600
C630        C  0.72059433  0.98488666  0.03008057     0.04700
C631        C  0.79705937  0.01827809  0.06151237     0.27100
C632        C  0.79856796  0.04837495  0.07973481    -0.13300
C633        C  0.82643874  0.06399536  0.08231583     0.05200
C634        C  0.85307713  0.05048981  0.06301191    -0.09300
C635        C  0.85046368  0.02030526  0.04239923     0.06000
C636        C  0.82322397  0.00378891  0.04499548    -0.13700
Br637      Br  0.75219080  0.03298144  0.97987391    -0.05700
Br638      Br  0.72667884  0.94311178  0.16044453    -0.00100
Br639      Br  0.82639537  0.10246823  0.11597591     0.00400
Br640      Br  0.82186707  0.96034942  0.02812821    -0.04100
Br641      Br  0.69216456  0.98678741  0.98016936     0.00500
Br642      Br  0.79265138  0.97784328  0.14921109    -0.03400
Br643      Br  0.76212553  0.06716617  0.10395106    -0.04200
Br644      Br  0.88152515  0.00186927  0.00347815    -0.00200
C645        C  0.60129591  0.95522865  0.07902732     0.01200
C646        C  0.59844389  0.98572825  0.09766842     0.04000
C647        C  0.57247343  0.00335027  0.08937804    -0.12100
C648        C  0.54649963  0.98920330  0.07164771     0.23300
C649        C  0.54701199  0.95722310  0.06161305    -0.12600
C650        C  0.57426429  0.94034943  0.06436384     0.04700
C651        C  0.51802128  0.00749278  0.06850407     0.27100
C652        C  0.50162478  0.01492866  0.10886235    -0.13300
C653        C  0.97578601  0.03386586  0.10671984     0.05200
C654        C  0.96633883  0.04667189  0.06373132    -0.09300
C655        C  0.98015473  0.03424935  0.02277252     0.06000
C656        C  0.50700167  0.01691807  0.02545573    -0.13700
Br657      Br  0.50993637  0.93650282  0.04554227    -0.05700
Br658      Br  0.62521654  0.00124321  0.14501207    -0.00100
Br659      Br  0.95192109  0.03795115  0.16280375     0.00400
Br660      Br  0.52882761  0.00573685  0.96976366    -0.04100
Br661      Br  0.57292536  0.89631982  0.05207783     0.00500
Br662      Br  0.57227750  0.04715995  0.10320538    -0.03400
Br663      Br  0.51468488  0.99847046  0.16740270    -0.04200
Br664      Br  0.95989593  0.03307295  0.96371494    -0.00200
C665        C  0.83166838  0.07452937  0.85158430     0.01200
C666        C  0.82614913  0.05220119  0.88567374     0.04000
C667        C  0.81018531  0.02521240  0.87489970    -0.12100
C668        C  0.79632817  0.02197088  0.83157123     0.23300
C669        C  0.80123545  0.04452598  0.79732332    -0.12600
C670        C  0.81983714  0.07033296  0.80685507     0.04700
C671        C  0.77529138  0.99562891  0.82469810     0.27100
C672        C  0.78692724  0.96565622  0.81774672    -0.13300
C673        C  0.76900692  0.93968595  0.82795074     0.05200
C674        C  0.73897254  0.94365810  0.84313543    -0.09300
C675        C  0.72610626  0.97345634  0.84319218     0.06000
C676        C  0.74449207  0.99950053  0.83540982    -0.13700
Br677      Br  0.78212940  0.04015558  0.73810278    -0.05700
Br678      Br  0.83956650  0.05917792  0.94787559    -0.00100
Br679      Br  0.78582917  0.89869338  0.82189057     0.00400
Br680      Br  0.72828676  0.04054616  0.84408705    -0.04100
Br681      Br  0.82749709  0.10077390  0.75993523     0.00500
Br682      Br  0.80786385  0.99222942  0.91923183    -0.03400
Br683      Br  0.82840344  0.96057113  0.79901243    -0.04200
Br684      Br  0.68392166  0.97893055  0.85706154    -0.00200
C685        C  0.76333929  0.92528476  0.27346760     0.01200
C686        C  0.79265855  0.92812123  0.25370913     0.04000
C687        C  0.81024593  0.95470537  0.26242193    -0.12100
C688        C  0.79947950  0.97803196  0.29242163     0.23300
C689        C  0.77297725  0.97285878  0.31809669    -0.12600
C690        C  0.75439342  0.94722508  0.30783371     0.04700
C691        C  0.81297238  0.00962858  0.29063066     0.27100
C692        C  0.84150390  0.01602567  0.30964054    -0.13300
C693        C  0.85629263  0.04416787  0.29944999     0.05200
C694        C  0.84149458  0.06698973  0.27319643    -0.09300
C695        C  0.81146588  0.06182655  0.25922291     0.06000
C696        C  0.79776557  0.03295824  0.26625590    -0.13700
Br697      Br  0.76179919  0.00214377  0.36597469    -0.05700
Br698      Br  0.80981800  0.89600652  0.21476777    -0.00100
Br699      Br  0.89752334  0.04987771  0.31816191     0.00400
Br700      Br  0.75838754  0.02520030  0.24046155    -0.04100
Br701      Br  0.71607353  0.94449557  0.33953513     0.00500
Br702      Br  0.84860669  0.96000897  0.23121869    -0.03400
Br703      Br  0.86028999  0.98592596  0.34896307    -0.04200
Br704      Br  0.78815219  0.09462218  0.23178236    -0.00200
C705        C  0.96312729  0.54730006  0.57489060     0.01200
C706        C  0.96404170  0.51867387  0.54980289     0.04000
C707        C  0.49040679  0.50062102  0.54914377    -0.12100
C708        C  0.51681915  0.51186560  0.56965853     0.23300
C709        C  0.51622252  0.53969500  0.59474344    -0.12600
C710        C  0.98933303  0.55654171  0.59917163     0.04700
C711        C  0.54512413  0.49391512  0.56626113     0.27100
C712        C  0.54988332  0.46890416  0.59596705    -0.13300
C713        C  0.57732748  0.45277419  0.59468754     0.05200
C714        C  0.60001937  0.46087611  0.56235260    -0.09300
C715        C  0.59353390  0.48393807  0.52948305     0.06000
C716        C  0.56723963  0.50176434  0.53341535    -0.13700
Br717      Br  0.55261137  0.55443326  0.62370181    -0.05700
Br718      Br  0.93135201  0.50424156  0.51134633    -0.00100
Br719      Br  0.58240580  0.41995302  0.63777831     0.00400
Br720      Br  0.56241453  0.53794570  0.49547187    -0.04100
Br721      Br  0.98910588  0.59003105  0.64280485     0.00500
Br722      Br  0.49050663  0.46008678  0.52026317    -0.03400
Br723      Br  0.51877164  0.45729596  0.63929034    -0.04200
Br724      Br  0.61801869  0.48829941  0.47497239    -0.00200
C725        C  0.85085413  0.55994383  0.57063182     0.01200
C726        C  0.83569097  0.55179654  0.61267589     0.04000
C727        C  0.80775509  0.53619152  0.61168632    -0.12100
C728        C  0.79645858  0.52439636  0.56995014     0.23300
C729        C  0.81293863  0.52866538  0.52885882    -0.12600
C730        C  0.84029463  0.54530839  0.52912241     0.04700
C731        C  0.76860318  0.50502618  0.56945088     0.27100
C732        C  0.76994919  0.47336642  0.58033930    -0.13300
C733        C  0.74405747  0.45444896  0.57649557     0.05200
C734        C  0.71593341  0.46729998  0.56255553    -0.09300
C735        C  0.71667368  0.49800597  0.54491440     0.06000
C736        C  0.74181822  0.51726338  0.55206260    -0.13700
Br737      Br  0.79817489  0.51035880  0.47198969    -0.05700
Br738      Br  0.85501097  0.55438727  0.67238568    -0.00100
Br739      Br  0.74939111  0.41033788  0.58443546     0.00400
Br740      Br  0.74023526  0.56053516  0.53578209    -0.04100
Br741      Br  0.86456965  0.54199613  0.47336772     0.00500
Br742      Br  0.78491869  0.53000191  0.66797989    -0.03400
Br743      Br  0.80793885  0.45583277  0.59905813    -0.04200
Br744      Br  0.68871999  0.51182471  0.49908130    -0.00200
C745        C  0.80693273  0.20459445  0.25708537     0.01200
C746        C  0.79827774  0.23003560  0.22945388     0.04000
C747        C  0.77543868  0.25042842  0.24495614    -0.12100
C748        C  0.76125272  0.24584483  0.28805460     0.23300
C749        C  0.76858613  0.21976422  0.31443039    -0.12600
C750        C  0.79080774  0.19890336  0.29874107     0.04700
C751        C  0.73907473  0.26871730  0.30648357     0.27100
C752        C  0.74914748  0.29504873  0.33110730    -0.13300
C753        C  0.72820502  0.31596532  0.35055635     0.05200
C754        C  0.69717318  0.31016523  0.34655602    -0.09300
C755        C  0.68706944  0.28354202  0.32280842     0.06000
C756        C  0.70794618  0.26327658  0.30184262    -0.13700
Br757      Br  0.74840246  0.21310163  0.37293183    -0.05700
Br758      Br  0.81794022  0.23827559  0.17109426    -0.00100
Br759      Br  0.74181894  0.35187186  0.38446653     0.00400
Br760      Br  0.69398225  0.22805998  0.26665269    -0.04100
Br761      Br  0.79740828  0.16166127  0.33389186     0.00500
Br762      Br  0.76368034  0.28521169  0.20775145    -0.03400
Br763      Br  0.79168087  0.30195414  0.33905695    -0.04200
Br764      Br  0.64458235  0.27449170  0.31966257    -0.00200
C765        C  0.94969130  0.20026296  0.28213311     0.01200
C766        C  0.97981545  0.18996508  0.28245861     0.04000
C767        C  0.00250528  0.20893723  0.30131551    -0.12100
C768        C  0.99517468  0.23820028  0.31998164     0.23300
C769        C  0.96496175  0.24799232  0.32134078    -0.12600
C770        C  0.94224355  0.22906313  0.30254766     0.04700
C771        C  0.01949098  0.25985033  0.33408644     0.27100
C772        C  0.53107521  0.25941516  0.37918124    -0.13300
C773        C  0.55421439  0.28007736  0.39204782     0.05200
C774        C  0.56549709  0.30198814  0.35994033    -0.09300
C775        C  0.55456172  0.30112632  0.31376446     0.06000
C776        C  0.53141697  0.28046231  0.30141036    -0.13700
Br777      Br  0.95500562  0.28774191  0.34814731    -0.05700
Br778      Br  0.99038536  0.15074428  0.25455019    -0.00100
Br779      Br  0.57187693  0.27579986  0.45250817     0.00400
Br780      Br  0.51557739  0.28020474  0.23924383    -0.04100
Br781      Br  0.90077215  0.24221837  0.30628440     0.00500
Br782      Br  0.54390791  0.19549704  0.30026779    -0.03400
Br783      Br  0.01508502  0.23017659  0.42310041    -0.04200
Br784      Br  0.57080753  0.32724314  0.26558158    -0.00200
C785        C  0.63381836  0.81472319  0.29479347     0.01200
C786        C  0.60774879  0.80489218  0.27119280     0.04000
C787        C  0.58578041  0.78699012  0.29409603    -0.12100
C788        C  0.58967542  0.77866794  0.34070681     0.23300
C789        C  0.61489235  0.78977095  0.36504288    -0.12600
C790        C  0.63679692  0.80796177  0.34232709     0.04700
C791        C  0.56803498  0.75676258  0.36279444     0.27100
C792        C  0.54210465  0.76773942  0.38598544    -0.13300
C793        C  0.51972133  0.74679468  0.40119012     0.05200
C794        C  0.52298892  0.71473020  0.39240547    -0.09300
C795        C  0.55019192  0.70374097  0.37255949     0.06000
C796        C  0.57252541  0.72467020  0.35778744    -0.13700
Br797      Br  0.61970811  0.77916003  0.42920362    -0.05700
Br798      Br  0.60143018  0.81697921  0.20787646    -0.00100
Br799      Br  0.98414422  0.76250540  0.43172280     0.00400
Br800      Br  0.60907592  0.70948956  0.32918602    -0.04100
Br801      Br  0.67151960  0.82215953  0.37617219     0.00500
Br802      Br  0.55036180  0.77331384  0.26150268    -0.03400
Br803      Br  0.53690803  0.81166450  0.39498573    -0.04200
Br804      Br  0.55744174  0.65979140  0.36641824    -0.00200
C805        C  0.88706358  0.69543841  0.33113857     0.01200
C806        C  0.88804898  0.72796141  0.32637157     0.04000
C807        C  0.86444208  0.74371610  0.30433474    -0.12100
C808        C  0.83998748  0.72712129  0.28566643     0.23300
C809        C  0.84007844  0.69453262  0.28710027    -0.12600
C810        C  0.86344329  0.67869442  0.30978776     0.04700
C811        C  0.81308114  0.74418230  0.26862497     0.27100
C812        C  0.78815836  0.74844725  0.29833016    -0.13300
C813        C  0.76388991  0.76711221  0.28477844     0.05200
C814        C  0.76499474  0.78329061  0.24245021    -0.09300
C815        C  0.78923732  0.77765092  0.21153612     0.06000
C816        C  0.81292549  0.75770263  0.22436944    -0.13700
Br817      Br  0.80750340  0.67177986  0.25901711    -0.05700
Br818      Br  0.92254031  0.75108654  0.34747485    -0.00100
Br819      Br  0.72866593  0.76955273  0.32410342     0.00400
Br820      Br  0.84581722  0.74958542  0.18217198    -0.04100
Br821      Br  0.86183956  0.63413398  0.31329775     0.00500
Br822      Br  0.86505888  0.78831157  0.30089137    -0.03400
Br823      Br  0.78800588  0.72991464  0.35890955    -0.04200
Br824      Br  0.79150277  0.79883735  0.15316359    -0.00200
C825        C  0.58933833  0.44283845  0.33656617     0.01200
C826        C  0.60251848  0.47254418  0.33782416     0.04000
C827        C  0.58451429  0.49881580  0.33027620    -0.12100
C828        C  0.55357263  0.49529004  0.32099834     0.23300
C829        C  0.54167014  0.46559521  0.31290740    -0.12600
C830        C  0.55941626  0.43937665  0.32119743     0.04700
C831        C  0.53267511  0.52116835  0.33163142     0.27100
C832        C  0.51948167  0.52258860  0.37600666    -0.13300
C833        C  0.00231997  0.54839378  0.38932213     0.05200
C834        C  0.49692475  0.57230016  0.35774592    -0.09300
C835        C  0.50803962  0.56972207  0.31199863     0.06000
C836        C  0.52640953  0.54437772  0.29919956    -0.13700
Br837      Br  0.49991628  0.46109606  0.29614666    -0.05700
Br838      Br  0.64416583  0.47765339  0.35478609    -0.00100
Br839      Br  0.98560890  0.55085256  0.45075684     0.00400
Br840      Br  0.54327674  0.54135169  0.23778909    -0.04100
Br841      Br  0.54207525  0.39876945  0.31367361     0.00500
Br842      Br  0.60138499  0.53973087  0.33694346    -0.03400
Br843      Br  0.02477055  0.48875134  0.41834266    -0.04200
Br844      Br  0.49933495  0.60141693  0.26759939    -0.00200
C845        C  0.70181757  0.31721986  0.78388027     0.01200
C846        C  0.69838655  0.30467549  0.82862041     0.04000
C847        C  0.72122304  0.28611808  0.84742462    -0.12100
C848        C  0.74746174  0.27961512  0.82156468     0.23300
C849        C  0.75121882  0.29254540  0.77728058    -0.12600
C850        C  0.72850391  0.31129895  0.75845868     0.04700
C851        C  0.76985564  0.25707207  0.83921628     0.27100
C852        C  0.79325179  0.26670854  0.86875873    -0.13300
C853        C  0.81526530  0.24537710  0.88304113     0.05200
C854        C  0.81322143  0.21404300  0.86935753    -0.09300
C855        C  0.78866921  0.20412431  0.84221630     0.06000
C856        C  0.76749781  0.22567325  0.82634585    -0.13700
Br857      Br  0.78739269  0.28394138  0.74217098    -0.05700
Br858      Br  0.66139588  0.31056823  0.86300300    -0.00100
Br859      Br  0.84918616  0.25957001  0.91872510     0.00400
Br860      Br  0.73517824  0.21228003  0.78659887    -0.04100
Br861      Br  0.73442258  0.32937884  0.69821587     0.00500
Br862      Br  0.71628362  0.26859484  0.90817813    -0.03400
Br863      Br  0.79507842  0.30915668  0.88943800    -0.04200
Br864      Br  0.78291728  0.16069524  0.82875023    -0.00200
C865        C  0.94984390  0.20101747  0.83980661     0.01200
C866        C  0.95262902  0.20297216  0.79107876     0.04000
C867        C  0.97464133  0.22238420  0.77098759    -0.12100
C868        C  0.99380867  0.24026399  0.79926066     0.23300
C869        C  0.99104335  0.23833263  0.84778116    -0.12600
C870        C  0.96950102  0.21855990  0.86795722     0.04700
C871        C  0.01781098  0.26018689  0.77860529     0.27100
C872        C  0.54820316  0.25089364  0.78110369    -0.13300
C873        C  0.57137415  0.27130553  0.76776370     0.05200
C874        C  0.56432109  0.30062205  0.74991052    -0.09300
C875        C  0.53395803  0.30932412  0.74492619     0.06000
C876        C  0.51074068  0.28937119  0.75988870    -0.13700
Br877      Br  0.51708400  0.26285385  0.88684368    -0.05700
Br878      Br  0.92561964  0.18024733  0.75119707    -0.00100
Br879      Br  0.61290900  0.25938108  0.77480344     0.00400
Br880      Br  0.96941257  0.30284297  0.75736237    -0.04100
Br881      Br  0.96849742  0.21431086  0.93440976     0.00500
Br882      Br  0.97874901  0.22438101  0.70458305    -0.03400
Br883      Br  0.55806893  0.21047320  0.80450768    -0.04200
Br884      Br  0.52434337  0.34962143  0.72081067    -0.00200
C885        C  0.50759205  0.72242117  0.76227686     0.01200
C886        C  0.51192239  0.73179551  0.80896490     0.04000
C887        C  0.53349987  0.75445292  0.81991417    -0.12100
C888        C  0.55116297  0.76780197  0.78485779     0.23300
C889        C  0.54637490  0.75955183  0.73835533    -0.12600
C890        C  0.52477919  0.73684122  0.72693312     0.04700
C891        C  0.57724656  0.78727193  0.79820115     0.27100
C892        C  0.57366906  0.81913932  0.80710129    -0.13300
C893        C  0.59733843  0.83625983  0.82703838     0.05200
C894        C  0.62475229  0.82152094  0.83776906    -0.09300
C895        C  0.62854462  0.78976952  0.82729791     0.06000
C896        C  0.60484913  0.77276309  0.80759409    -0.13700
Br897      Br  0.57051379  0.77866772  0.69071638    -0.05700
Br898      Br  0.48880820  0.71414657  0.85924661    -0.00100
Br899      Br  0.59102922  0.87915181  0.84347695     0.00400
Br900      Br  0.60953025  0.72900473  0.79531041    -0.04100
Br901      Br  0.52124157  0.72400456  0.66307343     0.00500
Br902      Br  0.53996846  0.76666755  0.88358168    -0.03400
Br903      Br  0.53577527  0.83878699  0.79397552    -0.04200
Br904      Br  0.66614103  0.76915789  0.83949640    -0.00200
C905        C  0.75806855  0.80028376  0.87331438     0.01200
C906        C  0.77841882  0.79064827  0.90778547     0.04000
C907        C  0.80088314  0.76869784  0.89709926    -0.12100
C908        C  0.80397346  0.75716646  0.85168736     0.23300
C909        C  0.78391174  0.76671673  0.81722366    -0.12600
C910        C  0.76072964  0.78775335  0.82799793     0.04700
C911        C  0.82990684  0.73723447  0.83868384     0.27100
C912        C  0.85757019  0.75108916  0.82683094    -0.13300
C913        C  0.88142706  0.73282071  0.80995031     0.05200
C914        C  0.87719087  0.70081279  0.80223960    -0.09300
C915        C  0.84960783  0.68685108  0.81479868     0.06000
C916        C  0.82630932  0.70495422  0.83423705    -0.13700
Br917      Br  0.78931944  0.75193764  0.75444403    -0.05700
Br918      Br  0.77797655  0.80954275  0.96853883    -0.00100
Br919      Br  0.92013870  0.75176267  0.79850112     0.00400
Br920      Br  0.78906497  0.68590926  0.85358856    -0.04100
Br921      Br  0.73282646  0.79873430  0.77984653     0.00500
Br922      Br  0.82840188  0.75517436  0.94410078    -0.03400
Br923      Br  0.86217439  0.79543946  0.83157136    -0.04200
Br924      Br  0.84254353  0.64367509  0.80132672    -0.00200
C925        C  0.58788231  0.44541413  0.77797418     0.01200
C926        C  0.56449297  0.44416836  0.81111527     0.04000
C927        C  0.54618926  0.47031367  0.81948226    -0.12100
C928        C  0.55069974  0.49756670  0.79383361     0.23300
C929        C  0.57581636  0.49957428  0.76371546    -0.12600
C930        C  0.59422910  0.47353233  0.75558568     0.04700
C931        C  0.52792147  0.52304206  0.79498972     0.27100
C932        C  0.50098260  0.51995605  0.76965561    -0.13300
C933        C  0.98238870  0.54581508  0.76240950     0.05200
C934        C  0.49020674  0.57477624  0.78140156    -0.09300
C935        C  0.51525136  0.57712360  0.81094502     0.06000
C936        C  0.53399941  0.55124950  0.81792394    -0.13700
Br937      Br  0.58481475  0.53787156  0.73286878    -0.05700
Br938      Br  0.55748690  0.40643861  0.84463088    -0.00100
Br939      Br  0.94704798  0.54195728  0.72425161     0.00400
Br940      Br  0.56799004  0.55415665  0.85878558    -0.04100
Br941      Br  0.62682975  0.47574654  0.71115526     0.00500
Br942      Br  0.51477200  0.46894851  0.86572203    -0.03400
Br943      Br  0.98930183  0.48030533  0.74493767    -0.04200
Br944      Br  0.52355416  0.61574556  0.84210397    -0.00200
loop_ 
_geom_bond_atom_site_label_1 
_geom_bond_atom_site_label_2 
_geom_bond_distance 
_geom_bond_site_symmetry_2 
_ccdc_geom_bond_type 
In1           O3   2.242       .  S
In1           O4   2.270       .  S
In1          O12   2.224       .  S
In1           O8   2.292       .  S
In1           O9   2.262       .  S
In1          O10   2.245       .  S
In1          O13   2.232       .  S
In1         O478   2.259       .  S
C2            O8   1.262       .  A
C2           O10   1.259       .  A
C2           C55   1.489       .  S
O3           C11   1.260       .  A
O4           C11   1.264       .  A
C5            O6   1.265       .  A
C5          O484   1.259       .  A
C5          C413   1.491   1_655  S
O6         In473   2.259       .  S
C7            O9   1.263       .  A
C7           O13   1.259       .  A
C7          C442   1.479       .  S
C11         C934   1.480       .  S
O12         C477   1.259       .  A
In14         O16   2.248       .  S
In14         O17   2.277       .  S
In14         O25   2.237       .  S
In14         O19   2.261       .  S
In14         O21   2.287       .  S
In14         O22   2.251       .  S
In14         O23   2.238       .  S
In14         O26   2.252       .  S
C15          O21   1.263       .  A
C15          O23   1.259       .  A
C15          C67   1.487       .  S
O16          C24   1.257       .  A
O17          C24   1.261       .  A
C18          O25   1.261       .  A
C18          O19   1.265       .  A
C18         C402   1.478       .  S
C20          O22   1.262       .  A
C20          O26   1.261       .  A
C20         C373   1.485       .  S
C24         C453   1.480       .  S
In27         O29   2.261       .  S
In27         O30   2.252       .  S
In27         O38   2.230       .  S
In27         O34   2.293       .  S
In27         O35   2.264       .  S
In27         O36   2.272       .  S
In27        O504   2.289       .  S
In27        O511   2.231       .  S
C28          O34   1.261       .  A
C28          O36   1.260       .  A
C28          C58   1.495       .  S
O29          C37   1.264       .  A
O30          C37   1.260       .  A
C31          O32   1.265       .  A
C31         O510   1.257       .  A
C31         C322   1.490   1_655  S
O32        In499   2.289       .  S
C33          O35   1.261       .  A
C33         O511   1.260       .  A
C33         C834   1.478       .  S
C37         C333   1.492       .  S
O38         C503   1.257       .  A
O39        In499   2.231       .  S
O39         C505   1.260       .  A
In40         O42   2.241       .  S
In40         O43   2.243       .  S
In40         O51   2.221       .  S
In40         O45   2.264       .  S
In40         O47   2.279       .  S
In40         O48   2.266       .  S
In40         O49   2.245       .  S
In40         O52   2.227       .  S
C41          O47   1.264       .  A
C41          O49   1.261       .  A
C41          C70   1.487       .  S
O42          C50   1.263       .  A
O43          C50   1.264       .  A
C44          O51   1.257       .  A
C44          O45   1.267       .  A
C44         C302   1.497       .  S
C46          O48   1.262       .  A
C46          O52   1.259       .  A
C46         C353   1.478       .  S
C50         C282   1.474       .  S
C53          C54   1.538       .  S
C53          C59   1.530       .  S
C53          C57   1.548       .  S
C53         C253   1.556       .  S
C54          H61   1.094       .  S
C54          C55   1.368       .  D
C55          C56   1.556       .  S
C56          C60   1.553       .  S
C56          C58   1.544       .  S
C56          H62   1.107       .  S
C57          H63   1.086       .  S
C57          C58   1.367       .  D
C59          H64   1.088       .  S
C59          C60   1.363       .  D
C60         C233   1.510       .  S
C65          C66   1.537       .  S
C65          C71   1.549       .  S
C65          C69   1.535       .  S
C65         C262   1.558       .  S
C66          H73   1.085       .  S
C66          C67   1.365       .  D
C67          C68   1.551       .  S
C68          C72   1.543       .  S
C68          C70   1.542       .  S
C68          H74   1.110       .  S
C69          H75   1.087       .  S
C69          C70   1.367       .  D
C71          H76   1.084       .  S
C71          C72   1.374       .  D
C72         C242   1.500       .  S
In77         O79   2.246       .  S
In77         O80   2.253       .  S
In77         O88   2.225       .  S
In77         O82   2.286       .  S
In77         O84   2.294       .  S
In77         O85   2.265       .  S
In77         O86   2.267       .  S
In77         O89   2.244       .  S
C78          O84   1.264       .  A
C78          O86   1.260       .  A
C78         C134   1.496       .  S
O79          C87   1.264       .  A
O80          C87   1.264       .  A
C81          O88   1.258       .  A
C81          O82   1.267       .  A
C81         C342   1.492       .  S
C83          O85   1.262       .  A
C83          O89   1.260       .  A
C83         C213   1.504       .  S
C87         C313   1.486       .  S
In90         O92   2.246       .  S
In90         O93   2.249       .  S
In90        O101   2.235       .  S
In90         O95   2.275       .  S
In90         O97   2.279       .  S
In90         O98   2.285       .  S
In90         O99   2.240       .  S
In90        O102   2.217       .  S
C91          O97   1.262       .  A
C91          O99   1.262       .  A
C91         C146   1.487       .  S
O92         C100   1.263       .  A
O93         C100   1.262       .  A
C94         O101   1.258       .  A
C94          O95   1.264       .  A
C94         C273   1.497       .  S
C96          O98   1.262       .  A
C96         O102   1.255       .  A
C96         C222   1.486       .  S
C100        C293   1.480       .  S
In103       O105   2.211       .  S
In103       O106   2.267       .  S
In103       O114   2.223       .  S
In103       O108   2.260       .  S
In103       O110   2.281       .  S
In103       O111   2.253       .  S
In103       O112   2.262       .  S
In103       O115   2.240       .  S
C104        O110   1.263       .  A
C104        O112   1.260       .  A
C104        C143   1.491   1_556  S
O105        C113   1.259       .  A
O106        C113   1.265       .  A
C107        O114   1.261       .  A
C107        O108   1.268       .  A
C107        C382   1.481       .  S
C109        O111   1.264       .  A
C109        O115   1.263       .  A
C109        C393   1.490       .  S
C113        C193   1.475       .  S
In116       O118   2.236       .  S
In116       O119   2.259       .  S
In116       O127   2.231       .  S
In116       O121   2.256       .  S
In116       O123   2.283       .  S
In116       O124   2.247       .  S
In116       O125   2.252       .  S
In116       O128   2.239       .  S
C117        O123   1.261       .  A
C117        O125   1.259       .  A
C117        C131   1.486   1_556  S
O118        C126   1.261       .  A
O119        C126   1.262       .  A
C120        O127   1.258       .  A
C120        O121   1.264       .  A
C120        C433   1.486       .  S
C122        O124   1.262       .  A
C122        O128   1.261       .  A
C122        C422   1.479       .  S
C126        C202   1.479       .  S
C129        C130   1.544       .  S
C129        C135   1.542       .  S
C129        C133   1.542       .  S
C129        C173   1.556       .  S
C130        H137   1.086       .  S
C130        C131   1.369       .  D
C131        C132   1.544       .  S
C132        C136   1.539       .  S
C132        C134   1.546       .  S
C132        H138   1.111       .  S
C133        H139   1.091       .  S
C133        C134   1.371       .  D
C135        H140   1.083       .  S
C135        C136   1.360       .  D
C136        C153   1.482       .  S
C141        C142   1.549       .  S
C141        C147   1.531       .  S
C141        C145   1.536       .  S
C141        C182   1.557       .  S
C142        H149   1.075   1_554  S
C142        C143   1.367       .  D
C143        C144   1.538       .  S
C144        C148   1.557       .  S
C144        C146   1.558       .  S
C144        H150   1.103       .  S
C145        H151   1.082       .  S
C145        C146   1.369       .  D
C147        H152   1.083       .  S
C147        C148   1.367       .  D
C148        C162   1.521       .  S
C153        C154   1.406       .  A
C153        C158   1.412       .  A
C154        C155   1.401       .  A
C154       Br166   1.915       .  S
C155        C156   1.404   1_565  A
C155       Br170   1.923       .  S
C156        C159   1.482       .  S
C156        C157   1.409       .  A
C157        C158   1.408   1_545  A
C157       Br165   1.927   1_554  S
C158       Br169   1.927   1_554  S
C159        C160   1.402       .  A
C159        C164   1.400       .  A
C160        C161   1.412       .  A
C160       Br171   1.937       .  S
C161        C162   1.429       .  A
C161       Br167   1.920       .  S
C162        C163   1.435       .  A
C163        C164   1.406       .  A
C163       Br172   1.943       .  S
C164       Br168   1.937   1_545  S
C173        C174   1.426       .  A
C173        C178   1.427       .  A
C174        C175   1.407   1_565  A
C174       Br186   1.936   1_565  S
C175        C176   1.404   1_545  A
C175       Br190   1.932       .  S
C176        C179   1.497   1_565  S
C176        C177   1.410       .  A
C177        C178   1.417       .  A
C177       Br185   1.932       .  S
C178       Br189   1.934       .  S
C179        C180   1.407       .  A
C179        C184   1.405       .  A
C180        C653   1.413   1_455  A
C180       Br191   1.935   1_545  S
C181        C182   1.431       .  A
C181        C652   1.413       .  A
C181       Br187   1.939       .  S
C182        C183   1.431       .  A
C183        C656   1.412       .  A
C183       Br192   1.937   1_554  S
C184        C655   1.412   1_455  A
C184       Br188   1.933   1_554  S
C193        C194   1.405       .  A
C193        C198   1.410       .  A
C194        C195   1.399       .  A
C194       Br206   1.921       .  S
C195        C196   1.406       .  A
C195       Br210   1.927   1_545  S
C196        C199   1.485   1_545  S
C196        C197   1.411       .  A
C197        C198   1.414       .  A
C197       Br205   1.925       .  S
C198       Br209   1.926       .  S
C199        C200   1.408       .  A
C199        C204   1.411       .  A
C200        C201   1.407       .  A
C200       Br211   1.929       .  S
C201        C202   1.412       .  A
C201       Br207   1.930       .  S
C202        C203   1.410       .  A
C203        C204   1.409       .  A
C203       Br212   1.928       .  S
C204       Br208   1.930   1_565  S
C213        C214   1.424       .  A
C213        C218   1.423       .  A
C214        C215   1.411       .  A
C214       Br226   1.935       .  S
C215        C216   1.407       .  A
C215       Br230   1.937       .  S
C216        C219   1.492   1_565  S
C216        C217   1.406       .  A
C217        C218   1.412       .  A
C217       Br225   1.932   1_565  S
C218       Br229   1.932       .  S
C219        C220   1.411       .  A
C219        C224   1.411       .  A
C220        C221   1.414       .  A
C220       Br231   1.929   1_545  S
C221        C222   1.415       .  A
C221       Br227   1.929       .  S
C222        C223   1.414       .  A
C223        C224   1.403       .  A
C223       Br232   1.935       .  S
C224       Br228   1.935       .  S
C233        C234   1.430       .  A
C233        C238   1.419       .  A
C234        C707   1.408       .  A
C234       Br246   1.935       .  S
C235        C236   1.403   1_655  A
C235        C706   1.408       .  A
C235       Br250   1.935       .  S
C236        C239   1.481       .  S
C236        C237   1.400       .  A
C237        C710   1.405   1_455  A
C237       Br245   1.931       .  S
C238        C709   1.405       .  A
C238       Br249   1.913       .  S
C239        C240   1.403       .  A
C239        C244   1.405       .  A
C240        C241   1.406       .  A
C240       Br251   1.928       .  S
C241        C242   1.416       .  A
C241       Br247   1.910       .  S
C242        C243   1.414       .  A
C243        C244   1.404       .  A
C243       Br252   1.919       .  S
C244       Br248   1.931       .  S
C253        C254   1.432       .  A
C253        C258   1.434       .  A
C254        C255   1.412       .  A
C254       Br266   1.936       .  S
C255        C256   1.403       .  A
C255       Br270   1.932       .  S
C256        C259   1.493       .  S
C256        C257   1.405       .  A
C257        C258   1.411       .  A
C257       Br265   1.938       .  S
C258       Br269   1.938       .  S
C259        C260   1.408       .  A
C259        C264   1.401       .  A
C260        C261   1.415       .  A
C260       Br271   1.934       .  S
C261        C262   1.430       .  A
C261       Br267   1.937       .  S
C262        C263   1.426       .  A
C263        C264   1.408       .  A
C263       Br272   1.922       .  S
C264       Br268   1.934       .  S
C273        C274   1.420       .  A
C273        C278   1.420       .  A
C274        C275   1.413       .  A
C274       Br286   1.930       .  S
C275        C276   1.408       .  A
C275       Br290   1.931       .  S
C276        C279   1.490       .  S
C276        C277   1.406       .  A
C277        C278   1.408       .  A
C277       Br285   1.933       .  S
C278       Br289   1.935       .  S
C279        C280   1.412       .  A
C279        C284   1.410       .  A
C280        C281   1.409       .  A
C280       Br291   1.928       .  S
C281        C282   1.406       .  A
C281       Br287   1.928       .  S
C282        C283   1.410       .  A
C283        C284   1.408       .  A
C283       Br292   1.930       .  S
C284       Br288   1.929       .  S
C293        C294   1.411       .  A
C293        C298   1.412       .  A
C294        C295   1.409       .  A
C294       Br306   1.929       .  S
C295        C296   1.409       .  A
C295       Br782   1.930       .  S
C296        C299   1.486       .  S
C296        C297   1.408       .  A
C297        C298   1.408       .  A
C297       Br305   1.930       .  S
C298       Br309   1.931       .  S
C299        C772   1.406       .  A
C299        C776   1.404       .  A
C300        C301   1.411       .  A
C300        C771   1.406       .  A
C300       Br783   1.930       .  S
C301        C302   1.420       .  A
C301       Br307   1.932       .  S
C302        C303   1.425       .  A
C303        C304   1.407       .  A
C303       Br312   1.935       .  S
C304        C771   1.404       .  A
C304       Br308   1.936       .  S
Br310       C767   1.930       .  S
Br311       C772   1.930       .  S
C313        C314   1.412       .  A
C313        C318   1.415       .  A
C314        C315   1.410       .  A
C314       Br326   1.931       .  S
C315        C316   1.410       .  A
C315       Br330   1.930       .  S
C316        C319   1.492       .  S
C316        C317   1.409       .  A
C317        C318   1.412       .  A
C317       Br325   1.929       .  S
C318       Br329   1.930       .  S
C319        C320   1.410       .  A
C319        C324   1.408       .  A
C320        C321   1.414       .  A
C320       Br331   1.928       .  S
C321        C322   1.415       .  A
C321       Br799   1.927   1_455  S
C322        C323   1.415       .  A
C323        C324   1.408       .  A
C323       Br332   1.934       .  S
C324       Br328   1.931       .  S
Br327       C793   1.927       .  S
C333        C334   1.414       .  A
C333        C338   1.417       .  A
C334        C335   1.410       .  A
C334       Br346   1.929       .  S
C335        C336   1.410       .  A
C335       Br350   1.931       .  S
C336        C339   1.494       .  S
C336        C337   1.410       .  A
C337        C338   1.413       .  A
C337       Br345   1.929       .  S
C338       Br349   1.931       .  S
C339        C340   1.408       .  A
C339        C344   1.411       .  A
C340        C341   1.407       .  A
C340       Br351   1.932       .  S
C341        C342   1.415       .  A
C341       Br347   1.930       .  S
C342        C343   1.415       .  A
C343        C344   1.415       .  A
C343       Br352   1.929       .  S
C344       Br348   1.928       .  S
C353        C354   1.411       .  A
C353        C358   1.412       .  A
C354        C355   1.409       .  A
C354       Br366   1.930       .  S
C355        C356   1.410       .  A
C355       Br370   1.929       .  S
C356        C359   1.484       .  S
C356        C357   1.406       .  A
C357        C358   1.405       .  A
C357       Br365   1.930   1_455  S
C358       Br369   1.927       .  S
C359        C360   1.408       .  A
C359        C364   1.408       .  A
C360        C833   1.402       .  A
C360       Br843   1.930       .  S
C361        C832   1.402       .  A
C361        C834   1.406       .  A
C361       Br367   1.923       .  S
C362        C505   1.478       .  S
C362        C363   1.413   1_655  A
C362        C833   1.406   1_655  A
C363        C364   1.413       .  A
C363       Br372   1.927   1_455  S
C364       Br368   1.926       .  S
Br371       C832   1.930       .  S
C373        C374   1.414       .  A
C373        C378   1.413       .  A
C374        C375   1.409       .  A
C374       Br386   1.931       .  S
C375        C376   1.408       .  A
C375       Br390   1.930       .  S
C376        C379   1.489       .  S
C376        C377   1.410       .  A
C377        C378   1.410       .  A
C377       Br385   1.930       .  S
C378       Br389   1.931       .  S
C379        C380   1.411       .  A
C379        C384   1.409       .  A
C380        C381   1.411       .  A
C380       Br391   1.927       .  S
C381        C382   1.411       .  A
C381       Br387   1.929       .  S
C382        C383   1.413       .  A
C383        C384   1.407       .  A
C383       Br392   1.931       .  S
C384       Br388   1.931       .  S
C393        C394   1.417       .  A
C393        C398   1.414       .  A
C394        C395   1.413       .  A
C394       Br406   1.932       .  S
C395        C396   1.411       .  A
C395       Br410   1.931       .  S
C396        C399   1.494       .  S
C396        C397   1.411       .  A
C397        C398   1.409       .  A
C397       Br877   1.933       .  S
C398       Br409   1.932       .  S
C399        C872   1.412       .  A
C399        C876   1.413       .  A
C400        C401   1.409       .  A
C400        C871   1.412       .  A
C400       Br411   1.931       .  S
C401        C402   1.409       .  A
C401       Br407   1.929       .  S
C402        C403   1.410       .  A
C403        C404   1.411       .  A
C403       Br412   1.931       .  S
C404        C871   1.413       .  A
C404       Br880   1.929   1_455  S
Br405       C869   1.933   1_455  S
Br408       C876   1.929       .  S
C413        C414   1.421       .  A
C413        C418   1.419       .  A
C414        C415   1.405       .  A
C414       Br426   1.935   1_455  S
C415        C416   1.405       .  A
C415       Br430   1.935       .  S
C416        C419   1.483       .  S
C416        C417   1.406       .  A
C417        C418   1.411       .  A
C417       Br425   1.930       .  S
C418       Br429   1.932       .  S
C419        C420   1.408       .  A
C419        C424   1.407       .  A
C420        C421   1.409       .  A
C420       Br431   1.928       .  S
C421        C422   1.413       .  A
C421       Br427   1.931       .  S
C422        C423   1.413       .  A
C423        C424   1.405       .  A
C423       Br432   1.930       .  S
C424       Br428   1.933       .  S
C433        C434   1.416       .  A
C433        C438   1.419       .  A
C434        C435   1.409       .  A
C434       Br446   1.932       .  S
C435        C436   1.407       .  A
C435       Br450   1.930       .  S
C436        C439   1.484       .  S
C436        C437   1.407       .  A
C437        C438   1.407       .  A
C437       Br445   1.934       .  S
C438       Br449   1.934       .  S
C439        C440   1.408       .  A
C439        C444   1.409       .  A
C440        C441   1.405       .  A
C440       Br451   1.932       .  S
C441        C442   1.412       .  A
C441       Br447   1.931       .  S
C442        C443   1.412       .  A
C443        C444   1.410       .  A
C443       Br452   1.929       .  S
C444       Br448   1.928       .  S
C453        C454   1.410       .  A
C453        C458   1.409       .  A
C454        C455   1.412       .  A
C454       Br466   1.927       .  S
C455        C456   1.410       .  A
C455       Br470   1.927       .  S
C456        C459   1.497       .  S
C456        C457   1.414       .  A
C457        C458   1.410       .  A
C457       Br465   1.927       .  S
C458       Br469   1.932       .  S
C459        C460   1.413       .  A
C459        C464   1.410       .  A
C460        C933   1.409   1_455  A
C460       Br943   1.924   1_455  S
C461        C932   1.409       .  A
C461        C934   1.407       .  A
C461       Br467   1.932       .  S
C462        C483   1.480       .  S
C462        C463   1.411   1_655  A
C462        C933   1.407       .  A
C463        C464   1.412       .  A
C463       Br472   1.927       .  S
C464       Br468   1.928       .  S
Br471       C932   1.924       .  S
In473       O475   2.242       .  S
In473       O476   2.270       .  S
In473       O484   2.224       .  S
In473       O480   2.292       .  S
In473       O481   2.262       .  S
In473       O482   2.245       .  S
In473       O485   2.232       .  S
C474        O480   1.262       .  A
C474        O482   1.259       .  A
C474        C527   1.489       .  S
O475        C483   1.260       .  A
O476        C483   1.264       .  A
C477        O478   1.265       .  A
C477        C885   1.491       .  S
C479        O481   1.263       .  A
C479        O485   1.259       .  A
C479        C914   1.479       .  S
In486       O488   2.248       .  S
In486       O489   2.277       .  S
In486       O497   2.237       .  S
In486       O491   2.261       .  S
In486       O493   2.287       .  S
In486       O494   2.251       .  S
In486       O495   2.238       .  S
In486       O498   2.252       .  S
C487        O493   1.263       .  A
C487        O495   1.259       .  A
C487        C539   1.487       .  S
O488        C496   1.257       .  A
O489        C496   1.261       .  A
C490        O497   1.261       .  A
C490        O491   1.265       .  A
C490        C874   1.478       .  S
C492        O494   1.262       .  A
C492        O498   1.261       .  A
C492        C845   1.485       .  S
C496        C925   1.480       .  S
In499       O501   2.261       .  S
In499       O502   2.252       .  S
In499       O510   2.230       .  S
In499       O506   2.293       .  S
In499       O507   2.264       .  S
In499       O508   2.272       .  S
C500        O506   1.261       .  A
C500        O508   1.260       .  A
C500        C530   1.495       .  S
O501        C509   1.264       .  A
O502        C509   1.260       .  A
C503        O504   1.265       .  A
C503        C794   1.490       .  S
C505        O507   1.261       .  A
C509        C805   1.492       .  S
In512       O514   2.241       .  S
In512       O515   2.243       .  S
In512       O523   2.221       .  S
In512       O517   2.264       .  S
In512       O519   2.279       .  S
In512       O520   2.266       .  S
In512       O521   2.245       .  S
In512       O524   2.227       .  S
C513        O519   1.264       .  A
C513        O521   1.261       .  A
C513        C542   1.487       .  S
O514        C522   1.263       .  A
O515        C522   1.264       .  A
C516        O523   1.257       .  A
C516        O517   1.267       .  A
C516        C774   1.497       .  S
C518        O520   1.262       .  A
C518        O524   1.259       .  A
C518        C825   1.478       .  S
C522        C754   1.474       .  S
C525        C526   1.538       .  S
C525        C531   1.530       .  S
C525        C529   1.548       .  S
C525        C725   1.556       .  S
C526        H533   1.094       .  S
C526        C527   1.368       .  D
C527        C528   1.556       .  S
C528        C532   1.553       .  S
C528        C530   1.544       .  S
C528        H534   1.107       .  S
C529        H535   1.086       .  S
C529        C530   1.367       .  D
C531        H536   1.088       .  S
C531        C532   1.363       .  D
C532        C705   1.510       .  S
C537        C538   1.537       .  S
C537        C543   1.549       .  S
C537        C541   1.535       .  S
C537        C734   1.558       .  S
C538        H545   1.085       .  S
C538        C539   1.365       .  D
C539        C540   1.551       .  S
C540        C544   1.543       .  S
C540        C542   1.542       .  S
C540        H546   1.110       .  S
C541        H547   1.087       .  S
C541        C542   1.367       .  D
C543        H548   1.084       .  S
C543        C544   1.374       .  D
C544        C714   1.500       .  S
In549       O551   2.246       .  S
In549       O552   2.253       .  S
In549       O560   2.225       .  S
In549       O554   2.286       .  S
In549       O556   2.294       .  S
In549       O557   2.265       .  S
In549       O558   2.267       .  S
In549       O561   2.244       .  S
C550        O556   1.264       .  A
C550        O558   1.260       .  A
C550        C606   1.496       .  S
O551        C559   1.264       .  A
O552        C559   1.264       .  A
C553        O560   1.258       .  A
C553        O554   1.267       .  A
C553        C814   1.492       .  S
C555        O557   1.262       .  A
C555        O561   1.260       .  A
C555        C685   1.504       .  S
C559        C785   1.486       .  S
In562       O564   2.246       .  S
In562       O565   2.249       .  S
In562       O573   2.235       .  S
In562       O567   2.275       .  S
In562       O569   2.279       .  S
In562       O570   2.285       .  S
In562       O571   2.240       .  S
In562       O574   2.217       .  S
C563        O569   1.262       .  A
C563        O571   1.262       .  A
C563        C618   1.487       .  S
O564        C572   1.263       .  A
O565        C572   1.262       .  A
C566        O573   1.258       .  A
C566        O567   1.264       .  A
C566        C745   1.497       .  S
C568        O570   1.262       .  A
C568        O574   1.255       .  A
C568        C694   1.486       .  S
C572        C765   1.480       .  S
In575       O577   2.211       .  S
In575       O578   2.267       .  S
In575       O586   2.223       .  S
In575       O580   2.260       .  S
In575       O582   2.281       .  S
In575       O583   2.253       .  S
In575       O584   2.262       .  S
In575       O587   2.240       .  S
C576        O582   1.263       .  A
C576        O584   1.260       .  A
C576        C615   1.491   1_556  S
O577        C585   1.259       .  A
O578        C585   1.265       .  A
C579        O586   1.261       .  A
C579        O580   1.268       .  A
C579        C854   1.481       .  S
C581        O583   1.264       .  A
C581        O587   1.263       .  A
C581        C865   1.490       .  S
C585        C665   1.475       .  S
In588       O590   2.236       .  S
In588       O591   2.259       .  S
In588       O599   2.231       .  S
In588       O593   2.256       .  S
In588       O595   2.283       .  S
In588       O596   2.247       .  S
In588       O597   2.252       .  S
In588       O600   2.239       .  S
C589        O595   1.261       .  A
C589        O597   1.259       .  A
C589        C603   1.486   1_556  S
O590        C598   1.261       .  A
O591        C598   1.262       .  A
C592        O599   1.258       .  A
C592        O593   1.264       .  A
C592        C905   1.486       .  S
C594        O596   1.262       .  A
C594        O600   1.261       .  A
C594        C894   1.479       .  S
C598        C674   1.479       .  S
C601        C602   1.544       .  S
C601        C607   1.542       .  S
C601        C605   1.542       .  S
C601        C645   1.556       .  S
C602        H609   1.086       .  S
C602        C603   1.369       .  D
C603        C604   1.544       .  S
C604        C608   1.539       .  S
C604        C606   1.546       .  S
C604        H610   1.111       .  S
C605        H611   1.091       .  S
C605        C606   1.371       .  D
C607        H612   1.083       .  S
C607        C608   1.360       .  D
C608        C625   1.482       .  S
C613        C614   1.549       .  S
C613        C619   1.531       .  S
C613        C617   1.536       .  S
C613        C654   1.557       .  S
C614        H621   1.075   1_554  S
C614        C615   1.367       .  D
C615        C616   1.538       .  S
C616        C620   1.557       .  S
C616        C618   1.558       .  S
C616        H622   1.103       .  S
C617        H623   1.082       .  S
C617        C618   1.369       .  D
C619        H624   1.083       .  S
C619        C620   1.367       .  D
C620        C634   1.521       .  S
C625        C626   1.406       .  A
C625        C630   1.412       .  A
C626        C627   1.401       .  A
C626       Br638   1.915       .  S
C627        C628   1.404   1_565  A
C627       Br642   1.923       .  S
C628        C631   1.482       .  S
C628        C629   1.409       .  A
C629        C630   1.408   1_545  A
C629       Br637   1.927   1_554  S
C630       Br641   1.927   1_554  S
C631        C632   1.402       .  A
C631        C636   1.400       .  A
C632        C633   1.412       .  A
C632       Br643   1.937       .  S
C633        C634   1.429       .  A
C633       Br639   1.920       .  S
C634        C635   1.435       .  A
C635        C636   1.406       .  A
C635       Br644   1.943       .  S
C636       Br640   1.937   1_545  S
C645        C646   1.426       .  A
C645        C650   1.427       .  A
C646        C647   1.407   1_565  A
C646       Br658   1.936   1_565  S
C647        C648   1.404   1_545  A
C647       Br662   1.932       .  S
C648        C651   1.497   1_565  S
C648        C649   1.410       .  A
C649        C650   1.417       .  A
C649       Br657   1.932       .  S
C650       Br661   1.934       .  S
C651        C652   1.407       .  A
C651        C656   1.405       .  A
C652       Br663   1.935   1_545  S
C653        C654   1.431       .  A
C653       Br659   1.939       .  S
C654        C655   1.431       .  A
C655       Br664   1.937   1_554  S
C656       Br660   1.933   1_554  S
C665        C666   1.405       .  A
C665        C670   1.410       .  A
C666        C667   1.399       .  A
C666       Br678   1.921       .  S
C667        C668   1.406       .  A
C667       Br682   1.927   1_545  S
C668        C671   1.485   1_545  S
C668        C669   1.411       .  A
C669        C670   1.414       .  A
C669       Br677   1.925       .  S
C670       Br681   1.926       .  S
C671        C672   1.408       .  A
C671        C676   1.411       .  A
C672        C673   1.407       .  A
C672       Br683   1.929       .  S
C673        C674   1.412       .  A
C673       Br679   1.930       .  S
C674        C675   1.410       .  A
C675        C676   1.409       .  A
C675       Br684   1.928       .  S
C676       Br680   1.930   1_565  S
C685        C686   1.424       .  A
C685        C690   1.423       .  A
C686        C687   1.411       .  A
C686       Br698   1.935       .  S
C687        C688   1.407       .  A
C687       Br702   1.937       .  S
C688        C691   1.492   1_565  S
C688        C689   1.406       .  A
C689        C690   1.412       .  A
C689       Br697   1.932   1_565  S
C690       Br701   1.932       .  S
C691        C692   1.411       .  A
C691        C696   1.411       .  A
C692        C693   1.414       .  A
C692       Br703   1.929   1_545  S
C693        C694   1.415       .  A
C693       Br699   1.929       .  S
C694        C695   1.414       .  A
C695        C696   1.403       .  A
C695       Br704   1.935       .  S
C696       Br700   1.935       .  S
C705        C706   1.430       .  A
C705        C710   1.419       .  A
C706       Br718   1.935       .  S
C707        C708   1.403       .  A
C707       Br722   1.935       .  S
C708        C711   1.481       .  S
C708        C709   1.400       .  A
C709       Br717   1.931       .  S
C710       Br721   1.913       .  S
C711        C712   1.403       .  A
C711        C716   1.405       .  A
C712        C713   1.406       .  A
C712       Br723   1.928       .  S
C713        C714   1.416       .  A
C713       Br719   1.910       .  S
C714        C715   1.414       .  A
C715        C716   1.404       .  A
C715       Br724   1.919       .  S
C716       Br720   1.931       .  S
C725        C726   1.432       .  A
C725        C730   1.434       .  A
C726        C727   1.412       .  A
C726       Br738   1.936       .  S
C727        C728   1.403       .  A
C727       Br742   1.932       .  S
C728        C731   1.493       .  S
C728        C729   1.405       .  A
C729        C730   1.411       .  A
C729       Br737   1.938       .  S
C730       Br741   1.938       .  S
C731        C732   1.408       .  A
C731        C736   1.401       .  A
C732        C733   1.415       .  A
C732       Br743   1.934       .  S
C733        C734   1.430       .  A
C733       Br739   1.937       .  S
C734        C735   1.426       .  A
C735        C736   1.408       .  A
C735       Br744   1.922       .  S
C736       Br740   1.934       .  S
C745        C746   1.420       .  A
C745        C750   1.420       .  A
C746        C747   1.413       .  A
C746       Br758   1.930       .  S
C747        C748   1.408       .  A
C747       Br762   1.931       .  S
C748        C751   1.490       .  S
C748        C749   1.406       .  A
C749        C750   1.408       .  A
C749       Br757   1.933       .  S
C750       Br761   1.935       .  S
C751        C752   1.412       .  A
C751        C756   1.410       .  A
C752        C753   1.409       .  A
C752       Br763   1.928       .  S
C753        C754   1.406       .  A
C753       Br759   1.928       .  S
C754        C755   1.410       .  A
C755        C756   1.408       .  A
C755       Br764   1.930       .  S
C756       Br760   1.929       .  S
C765        C766   1.411       .  A
C765        C770   1.412       .  A
C766        C767   1.409   1_655  A
C766       Br778   1.929       .  S
C767        C768   1.409   1_455  A
C768        C771   1.486   1_655  S
C768        C769   1.408       .  A
C769        C770   1.408       .  A
C769       Br777   1.930       .  S
C770       Br781   1.931       .  S
C772        C773   1.411       .  A
C773        C774   1.420       .  A
C773       Br779   1.932       .  S
C774        C775   1.425       .  A
C775        C776   1.407       .  A
C775       Br784   1.935       .  S
C776       Br780   1.936       .  S
C785        C786   1.412       .  A
C785        C790   1.415       .  A
C786        C787   1.410       .  A
C786       Br798   1.931       .  S
C787        C788   1.410       .  A
C787       Br802   1.930       .  S
C788        C791   1.492       .  S
C788        C789   1.409       .  A
C789        C790   1.412       .  A
C789       Br797   1.929       .  S
C790       Br801   1.930       .  S
C791        C792   1.410       .  A
C791        C796   1.408       .  A
C792        C793   1.414       .  A
C792       Br803   1.928       .  S
C793        C794   1.415       .  A
C794        C795   1.415       .  A
C795        C796   1.408       .  A
C795       Br804   1.934       .  S
C796       Br800   1.931       .  S
C805        C806   1.414       .  A
C805        C810   1.417       .  A
C806        C807   1.410       .  A
C806       Br818   1.929       .  S
C807        C808   1.410       .  A
C807       Br822   1.931       .  S
C808        C811   1.494       .  S
C808        C809   1.410       .  A
C809        C810   1.413       .  A
C809       Br817   1.929       .  S
C810       Br821   1.931       .  S
C811        C812   1.408       .  A
C811        C816   1.411       .  A
C812        C813   1.407       .  A
C812       Br823   1.932       .  S
C813        C814   1.415       .  A
C813       Br819   1.931       .  S
C814        C815   1.415       .  A
C815        C816   1.415       .  A
C815       Br824   1.929       .  S
C816       Br820   1.928       .  S
C825        C826   1.411       .  A
C825        C830   1.412       .  A
C826        C827   1.409       .  A
C826       Br838   1.930       .  S
C827        C828   1.410       .  A
C827       Br842   1.929       .  S
C828        C831   1.484       .  S
C828        C829   1.406       .  A
C829        C830   1.405       .  A
C829       Br837   1.930       .  S
C830       Br841   1.927       .  S
C831        C832   1.408       .  A
C831        C836   1.408       .  A
C833       Br839   1.923   1_455  S
C834        C835   1.413       .  A
C835        C836   1.413       .  A
C835       Br844   1.927       .  S
C836       Br840   1.926       .  S
C845        C846   1.414       .  A
C845        C850   1.413       .  A
C846        C847   1.409       .  A
C846       Br858   1.931       .  S
C847        C848   1.408       .  A
C847       Br862   1.930       .  S
C848        C851   1.489       .  S
C848        C849   1.410       .  A
C849        C850   1.410       .  A
C849       Br857   1.930       .  S
C850       Br861   1.931       .  S
C851        C852   1.411       .  A
C851        C856   1.409       .  A
C852        C853   1.411       .  A
C852       Br863   1.927       .  S
C853        C854   1.411       .  A
C853       Br859   1.929       .  S
C854        C855   1.413       .  A
C855        C856   1.407       .  A
C855       Br864   1.931       .  S
C856       Br860   1.931       .  S
C865        C866   1.417       .  A
C865        C870   1.414       .  A
C866        C867   1.413       .  A
C866       Br878   1.932       .  S
C867        C868   1.411       .  A
C867       Br882   1.931       .  S
C868        C871   1.494   1_655  S
C868        C869   1.411       .  A
C869        C870   1.409       .  A
C870       Br881   1.932       .  S
C872        C873   1.409       .  A
C872       Br883   1.931       .  S
C873        C874   1.409       .  A
C873       Br879   1.929       .  S
C874        C875   1.410       .  A
C875        C876   1.411       .  A
C875       Br884   1.931       .  S
C885        C886   1.421       .  A
C885        C890   1.419       .  A
C886        C887   1.405       .  A
C886       Br898   1.935       .  S
C887        C888   1.405       .  A
C887       Br902   1.935       .  S
C888        C891   1.483       .  S
C888        C889   1.406       .  A
C889        C890   1.411       .  A
C889       Br897   1.930       .  S
C890       Br901   1.932       .  S
C891        C892   1.408       .  A
C891        C896   1.407       .  A
C892        C893   1.409       .  A
C892       Br903   1.928       .  S
C893        C894   1.413       .  A
C893       Br899   1.931       .  S
C894        C895   1.413       .  A
C895        C896   1.405       .  A
C895       Br904   1.930       .  S
C896       Br900   1.933       .  S
C905        C906   1.416       .  A
C905        C910   1.419       .  A
C906        C907   1.409       .  A
C906       Br918   1.932       .  S
C907        C908   1.407       .  A
C907       Br922   1.930       .  S
C908        C911   1.484       .  S
C908        C909   1.407       .  A
C909        C910   1.407       .  A
C909       Br917   1.934       .  S
C910       Br921   1.934       .  S
C911        C912   1.408       .  A
C911        C916   1.409       .  A
C912        C913   1.405       .  A
C912       Br923   1.932       .  S
C913        C914   1.412       .  A
C913       Br919   1.931       .  S
C914        C915   1.412       .  A
C915        C916   1.410       .  A
C915       Br924   1.929       .  S
C916       Br920   1.928       .  S
C925        C926   1.410       .  A
C925        C930   1.409       .  A
C926        C927   1.412       .  A
C926       Br938   1.927       .  S
C927        C928   1.410       .  A
C927       Br942   1.927       .  S
C928        C931   1.497       .  S
C928        C929   1.414       .  A
C929        C930   1.410       .  A
C929       Br937   1.927       .  S
C930       Br941   1.932       .  S
C931        C932   1.413       .  A
C931        C936   1.410       .  A
C933       Br939   1.932       .  S
C934        C935   1.411       .  A
C935        C936   1.412       .  A
C935       Br944   1.927       .  S
C936       Br940   1.928       .  S
