geometry optimzed in LAMMPS
_audit_creation_date              2020-11-30 
_audit_creation_method            'lammps2cif' 
_symmetry_space_group_name_H-M    'P1' 
_symmetry_Int_Tables_number       1 
_symmetry_cell_setting            triclinic 
loop_ 
_symmetry_equiv_pos_as_xyz 
  x,y,z 
_cell_length_a                    44.58754657 
_cell_length_b                    44.56667086447674 
_cell_length_c                    44.50393617056305 
_cell_angle_alpha                 89.91998476627955 
_cell_angle_beta                  90.01214151124533 
_cell_angle_gamma                 89.89858426701694 
loop_ 
_atom_site_label 
_atom_site_type_symbol 
_atom_site_fract_x 
_atom_site_fract_y 
_atom_site_fract_z 
_atom_site_charge 
C1          C  0.56420517  0.29616056  0.07463688     0.05100
C2          C  0.54806973  0.30027378  0.10143693    -0.11000
C3          C  0.51655455  0.29866868  0.10171964     0.02600
C4          C  0.50164107  0.29217479  0.07466279    -0.09500
C5          C  0.51761954  0.28535688  0.04842336     0.05100
C6          C  0.54893227  0.28837198  0.04821036    -0.09000
H7          H  0.56029855  0.30454198  0.12200161     0.10700
H8          H  0.47738818  0.29175428  0.07389133     0.08200
H9          H  0.56149250  0.28359736  0.02792171     0.08100
C10         C  0.29400625  0.11870368  0.51022097     0.05100
C11         C  0.28522139  0.09243679  0.49510279    -0.11000
C12         C  0.28296358  0.09218995  0.46364994     0.02600
C13         C  0.29036279  0.11798485  0.44725912    -0.09500
C14         C  0.29876621  0.14460071  0.46191502     0.05100
C15         C  0.30034294  0.14469803  0.49344296    -0.09000
H16         H  0.27947548  0.07247150  0.50776106     0.10700
H17         H  0.28956432  0.11712568  0.42294499     0.08200
H18         H  0.30657163  0.16506424  0.50507289     0.08100
C19         C  0.13791784  0.55053915  0.23829651     0.05100
C20         C  0.16326329  0.53418888  0.24776643    -0.11000
C21         C  0.16316263  0.50268614  0.24678573     0.02600
C22         C  0.13772681  0.48769435  0.23623531    -0.09500
C23         C  0.11257188  0.50366728  0.22611060     0.05100
C24         C  0.11270539  0.53519382  0.22730413    -0.09000
H25         H  0.18286418  0.54591805  0.25603541     0.10700
H26         H  0.13765790  0.46336984  0.23565155     0.08200
H27         H  0.09332981  0.54777274  0.21964021     0.08100
C28         C  0.37639052  0.33040924  0.27681263     0.05100
C29         C  0.35361027  0.35142403  0.27049149    -0.11000
C30         C  0.32847781  0.35411549  0.28929171     0.02600
C31         C  0.32547920  0.33472423  0.31397959    -0.09500
C32         C  0.34787799  0.31351874  0.32055184     0.05100
C33         C  0.37372560  0.31239950  0.30260160    -0.09000
H34         H  0.35477242  0.36509380  0.25039221     0.10700
H35         H  0.30546100  0.33581304  0.32771798     0.08200
H36         H  0.39145164  0.29677740  0.30838542     0.08100
Zn37       Zn  0.64796473  0.69765931  0.64038855     1.49700
Zn38       Zn  0.69062811  0.64102589  0.65201214     1.49400
Zn39       Zn  0.70152861  0.68134611  0.59475091     1.49100
Zn40       Zn  0.71571362  0.70785070  0.65901443     1.49500
O41         O  0.68884287  0.68194090  0.63648371    -1.82100
O42         O  0.62018572  0.66696718  0.65991295    -0.72800
O43         O  0.70861663  0.61130048  0.62169202    -0.72600
O44         O  0.67005469  0.70004633  0.56824020    -0.72100
O45         O  0.64910299  0.62644331  0.66084161    -0.72800
O46         O  0.63150955  0.70624020  0.59914152    -0.72400
O47         O  0.70763353  0.63917507  0.58048176    -0.73000
O48         O  0.75327475  0.71688710  0.63542705    -0.72300
O49         O  0.71068157  0.64107034  0.69286310    -0.73100
O50         O  0.74196828  0.70113519  0.58936156    -0.72500
O51         O  0.72627464  0.68826720  0.69847379    -0.73000
O52         O  0.69563912  0.74722942  0.66834838    -0.72900
O53         O  0.64724830  0.73820190  0.66173620    -0.72700
C54         C  0.62373598  0.63893348  0.66480068     0.79100
C55         C  0.71168890  0.61394153  0.59324951     0.79600
C56         C  0.64281827  0.70743587  0.57288647     0.78600
C57         C  0.76005275  0.71324409  0.60786768     0.79000
C58         C  0.72240519  0.66183256  0.70867022     0.80100
C59         C  0.66841701  0.75586342  0.66940203     0.79100
C60         C  0.24826431  0.89612601  0.00276111     0.05100
C61         C  0.25718481  0.92319956  0.98928685    -0.11000
C62         C  0.26221813  0.92488608  0.95817145     0.02600
C63         C  0.25805398  0.89904682  0.94062594    -0.09500
C64         C  0.24885536  0.87183344  0.95361265     0.05100
C65         C  0.24394141  0.87056375  0.98479194    -0.09000
H66         H  0.25988082  0.94303394  0.00306837     0.10700
H67         H  0.26202986  0.90009749  0.91662415     0.08200
H68         H  0.23748218  0.84956113  0.99518845     0.08100
C69         C  0.41536156  0.46982734  0.73343740     0.05100
C70         C  0.38912598  0.48676211  0.73818573    -0.11000
C71         C  0.39005502  0.51836359  0.73880990     0.02600
C72         C  0.41772043  0.53260718  0.73355396    -0.09500
C73         C  0.44363455  0.51603616  0.72672692     0.05100
C74         C  0.44251501  0.48459389  0.72749922    -0.09000
H75         H  0.36811585  0.47513962  0.74166237     0.10700
H76         H  0.41936304  0.55680821  0.73476514     0.08200
H77         H  0.46254183  0.47159736  0.72282153     0.08100
C78         C  0.97900272  0.75359203  0.57582272     0.05100
C79         C  0.99351206  0.76567572  0.55042528    -0.11000
C80         C  0.02496768  0.76728915  0.54912773     0.02600
C81         C  0.04189604  0.75743948  0.57380765    -0.09500
C82         C  0.02792816  0.74618360  0.59966368     0.05100
C83         C  0.99657294  0.74363804  0.60023424    -0.09000
H84         H  0.98039257  0.77425582  0.53180290     0.10700
H85         H  0.06616111  0.75821121  0.57278269     0.08200
H86         H  0.98588194  0.73410858  0.61988755     0.08100
C87         C  0.21696810  0.66016978  0.77912913     0.05100
C88         C  0.22380178  0.68243282  0.80048259    -0.11000
C89         C  0.20550592  0.70787815  0.80386409     0.02600
C90         C  0.18068635  0.71171304  0.78483638    -0.09500
C91         C  0.17357136  0.69001819  0.76314078     0.05100
C92         C  0.19111304  0.66382453  0.76128803    -0.09000
H93         H  0.24407283  0.68071906  0.81379824     0.10700
H94         H  0.16731279  0.73195361  0.78650262     0.08200
H95         H  0.18492449  0.64662592  0.74529771     0.08100
Zn96       Zn  0.35383135  0.21087982  0.82566782     1.49700
Zn97       Zn  0.38980482  0.14927495  0.83089974     1.49400
Zn98       Zn  0.32793183  0.15157081  0.79563157     1.49100
Zn99       Zn  0.38648779  0.18365098  0.76838057     1.49500
O100        O  0.36439281  0.17386024  0.80498661    -1.82100
O101        O  0.37777213  0.21524108  0.86392612    -0.72800
O102        O  0.36647663  0.11485827  0.84923712    -0.72600
O103        O  0.29140640  0.17612699  0.80609447    -0.72100
O104        O  0.40634967  0.17449902  0.86441322    -0.72800
O105        O  0.30901417  0.21389755  0.83326272    -0.72400
O106        O  0.32430139  0.11491971  0.82256779    -0.73000
O107        O  0.36404068  0.16772017  0.73263563    -0.72300
O108        O  0.42525070  0.13295917  0.80800018    -0.73100
O109        O  0.32619806  0.14102925  0.75101222    -0.72500
O110        O  0.42635081  0.16209010  0.76760671    -0.73000
O111        O  0.39260978  0.22877711  0.76299439    -0.72900
O112        O  0.36592761  0.24657426  0.80094601    -0.72700
C113        C  0.39908547  0.19989330  0.87531617     0.79100
C114        C  0.34068690  0.10402962  0.84341881     0.79600
C115        C  0.28701161  0.19908536  0.82255945     0.78600
C116        C  0.34165235  0.15042070  0.72873188     0.79000
C117        C  0.43782855  0.14137015  0.78371025     0.80100
C118        C  0.38203045  0.25093126  0.77774085     0.79100
C119        C  0.06959908  0.25360357  0.85217620     0.05100
C120        C  0.05515585  0.26375692  0.87841647    -0.11000
C121        C  0.02397431  0.26876059  0.87861162     0.02600
C122        C  0.00736798  0.26305635  0.85244479    -0.09500
C123        C  0.02137333  0.25285051  0.82618717     0.05100
C124        C  0.05248600  0.24812578  0.82618882    -0.09000
H125        H  0.06824893  0.26836558  0.89839838     0.10700
H126        H  0.98323956  0.26603041  0.85266810     0.08200
H127        H  0.06338962  0.24011408  0.80596522     0.08100
C128        C  0.78694232  0.40808427  0.42243396     0.05100
C129        C  0.77844614  0.43494359  0.43670017    -0.11000
C130        C  0.77918192  0.43712226  0.46810298     0.02600
C131        C  0.78955711  0.41287328  0.48517169    -0.09500
C132        C  0.79684856  0.38529375  0.47165334     0.05100
C133        C  0.79529505  0.38315753  0.44009567    -0.09000
H134        H  0.77086557  0.45390696  0.42345935     0.10700
H135        H  0.79153243  0.41566193  0.50925280     0.08200
H136        H  0.80065637  0.36218894  0.42909469     0.08100
C137        C  0.64123484  0.97876205  0.69317494     0.05100
C138        C  0.61591901  0.99479299  0.70327364    -0.11000
C139        C  0.61719325  0.02610761  0.70706442     0.02600
C140        C  0.64381783  0.04129263  0.70020213    -0.09500
C141        C  0.66923221  0.02566327  0.69034128     0.05100
C142        C  0.66781845  0.99447942  0.68674752    -0.09000
H143        H  0.59541538  0.98289853  0.70855948     0.10700
H144        H  0.64478246  0.06548772  0.70249312     0.08200
H145        H  0.68772951  0.98235969  0.67979890     0.08100
C146        C  0.84679854  0.21712018  0.61676913     0.05100
C147        C  0.86904431  0.22314336  0.63839161    -0.11000
C148        C  0.87363472  0.20372488  0.66284508     0.02600
C149        C  0.85512634  0.17852812  0.66631715    -0.09500
C150        C  0.83262407  0.17233951  0.64520571     0.05100
C151        C  0.82933890  0.19106207  0.62004638    -0.09000
H152        H  0.88211963  0.24354840  0.63701385     0.10700
H153        H  0.85777026  0.16417902  0.68582189     0.08200
H154        H  0.81259693  0.18549236  0.60333715     0.08100
Zn155      Zn  0.82545195  0.37980380  0.13713889     1.49700
Zn156      Zn  0.85100274  0.32137269  0.10291194     1.49400
Zn157      Zn  0.88703051  0.38226047  0.10339535     1.49100
Zn158      Zn  0.88190515  0.34474867  0.16396451     1.49500
O159        O  0.86117978  0.35664390  0.12707678    -1.82100
O160        O  0.78936185  0.35787159  0.12264808    -0.72800
O161        O  0.87637789  0.31942992  0.06453096    -0.72600
O162        O  0.86471107  0.41772732  0.08637838    -0.72100
O163        O  0.80577323  0.32017244  0.09447149    -0.72800
O164        O  0.82379568  0.41930108  0.11450963    -0.72400
O165        O  0.90508121  0.35961483  0.06920445    -0.73000
O166        O  0.92171582  0.36656497  0.16771828    -0.72300
O167        O  0.86285970  0.28389441  0.12553176    -0.73100
O168        O  0.92126156  0.39684074  0.12814540    -0.72500
O169        O  0.88845038  0.29951455  0.16529836    -0.73000
O170        O  0.85749539  0.35715926  0.20025559    -0.72900
O171        O  0.82081119  0.38566373  0.18215835    -0.72700
C172        C  0.78427176  0.33592473  0.10514371     0.79100
C173        C  0.89837386  0.33547223  0.05562522     0.79600
C174        C  0.84004859  0.43019460  0.09362477     0.78600
C175        C  0.93339721  0.38773052  0.15237232     0.79000
C176        C  0.87869338  0.27829320  0.14873901     0.80100
C177        C  0.83477087  0.37409189  0.20436614     0.79100
C178        C  0.91816280  0.05869064  0.18809208     0.05100
C179        C  0.94561768  0.04425079  0.19425439    -0.11000
C180        C  0.94676984  0.01282937  0.19778409     0.02600
C181        C  0.92030200  0.99617497  0.19463671    -0.09500
C182        C  0.89302245  0.01020947  0.18786247     0.05100
C183        C  0.89198698  0.04148909  0.18490266    -0.09000
H184        H  0.96584989  0.05743120  0.19657943     0.10700
H185        H  0.92074748  0.97208084  0.19807346     0.08200
H186        H  0.87091837  0.05241578  0.17961360     0.08100
C187        C  0.48134175  0.78333733  0.36115294     0.05100
C188        C  0.49394493  0.77582824  0.38902926    -0.11000
C189        C  0.52513116  0.77717521  0.39311237     0.02600
C190        C  0.54342549  0.78660607  0.36924834    -0.09500
C191        C  0.53124484  0.79277847  0.34075652     0.05100
C192        C  0.50008796  0.79052023  0.33693728    -0.09000
H193        H  0.47952391  0.76986120  0.40768367     0.10700
H194        H  0.56730649  0.78878479  0.37297570     0.08200
H195        H  0.49007941  0.79445374  0.31511989     0.08100
C196        C  0.75537282  0.63914118  0.93169542     0.05100
C197        C  0.74626031  0.66370952  0.94936552    -0.11000
C198        C  0.74749097  0.66222905  0.98077931     0.02600
C199        C  0.75761311  0.63596775  0.99478399    -0.09500
C200        C  0.76697518  0.61128968  0.97766520     0.05100
C201        C  0.76582802  0.61298142  0.94616406    -0.09000
H202        H  0.73767079  0.68388684  0.93875897     0.10700
H203        H  0.75850698  0.63485639  0.01906697     0.08200
H204        H  0.77370833  0.59407136  0.93292274     0.08100
C205        C  0.70521527  0.82610073  0.12947359     0.05100
C206        C  0.72623400  0.84845860  0.13620734    -0.11000
C207        C  0.72202430  0.86731982  0.16098304     0.02600
C208        C  0.69696464  0.86354090  0.17951637    -0.09500
C209        C  0.67560908  0.84127217  0.17310040     0.05100
C210        C  0.67957941  0.82320941  0.14750840    -0.09000
H211        H  0.74604465  0.85106303  0.12232198     0.10700
H212        H  0.69489413  0.87715295  0.19955976     0.08200
H213        H  0.66328734  0.80602338  0.14222358     0.08100
Zn214      Zn  0.14734058  0.83238329  0.29867832     1.49700
Zn215      Zn  0.20477180  0.84642650  0.33967061     1.49400
Zn216      Zn  0.21264161  0.82157421  0.27375094     1.49100
Zn217      Zn  0.18995472  0.88815565  0.28341878     1.49500
O218        O  0.18847819  0.84727429  0.29905515    -1.82100
O219        O  0.13342872  0.82762702  0.34138170    -0.72800
O220        O  0.24519555  0.82536617  0.34074699    -0.72600
O221        O  0.19210026  0.78190905  0.26690185    -0.72100
O222        O  0.17482287  0.82905164  0.36913907    -0.72800
O223        O  0.14497976  0.79038737  0.28025908    -0.72400
O224        O  0.25269790  0.81353016  0.29294849    -0.73000
O225        O  0.21114890  0.88965167  0.24317126    -0.72300
O226        O  0.21260071  0.88848912  0.35393317    -0.73100
O227        O  0.21956154  0.84142651  0.23378713    -0.72500
O228        O  0.20690078  0.91757934  0.31394309    -0.73000
O229        O  0.14843771  0.90210958  0.27356215    -0.72900
O230        O  0.11916706  0.86217774  0.27795390    -0.72700
C231        C  0.14656469  0.82525248  0.36671236     0.79100
C232        C  0.26207677  0.81525239  0.31992472     0.79600
C233        C  0.16516493  0.77287518  0.26987647     0.78600
C234        C  0.21906681  0.86873762  0.22529406     0.79000
C235        C  0.21341506  0.91429854  0.34168233     0.80100
C236        C  0.12293058  0.88968333  0.27075901     0.79100
C237        C  0.69376076  0.77577747  0.06174470     0.14700
C238        C  0.72117789  0.76024132  0.06078001     0.01600
C239        C  0.74355535  0.76699477  0.08190784     0.16600
C240        C  0.73851432  0.78874266  0.10391426     0.26000
C241        C  0.71101996  0.80428143  0.10505127    -0.40300
C242        C  0.68873135  0.79769583  0.08366382     0.33100
C243        C  0.72624640  0.73619690  0.03850073     0.01700
F244        F  0.76992625  0.75169955  0.08187299    -0.12600
F245        F  0.66216944  0.81263998  0.08388086    -0.13100
C246        C  0.74958347  0.73863371  0.01742130     0.16600
C247        C  0.75581463  0.71490656  0.99784317     0.26000
C248        C  0.73898411  0.68832713  0.99931877    -0.40300
C249        C  0.71529240  0.68610424  0.02000281     0.33000
C250        C  0.70884956  0.70994895  0.03935526     0.14700
F251        F  0.76659160  0.76384750  0.01615961    -0.12600
F252        F  0.69867519  0.66065423  0.02167002    -0.13100
F253        F  0.77910075  0.71733385  0.97833911    -0.15400
F254        F  0.68640698  0.70698139  0.05975773    -0.14000
F255        F  0.67193377  0.76977223  0.04135777    -0.14000
F256        F  0.76004123  0.79367171  0.12492202    -0.15400
C257        C  0.61406802  0.85285207  0.23105720     0.14700
C258        C  0.60768187  0.82308421  0.23951329     0.01600
C259        C  0.62177492  0.79947751  0.22401013     0.16600
C260        C  0.64378244  0.80537759  0.20260342     0.26000
C261        C  0.65075708  0.83512879  0.19450451    -0.40300
C262        C  0.63489835  0.85877407  0.20829291     0.33100
C263        C  0.58812772  0.81631615  0.26568544     0.01700
F264        F  0.61478792  0.77045734  0.23016336    -0.12600
F265        F  0.63984015  0.88769687  0.20006574    -0.13100
C266        C  0.55968307  0.82960831  0.26882016     0.16600
C267        C  0.54172165  0.82294043  0.29371903     0.26000
C268        C  0.55096758  0.80130194  0.31505557    -0.40300
C269        C  0.57927445  0.78765596  0.31141191     0.33000
C270        C  0.59800797  0.79597946  0.28779066     0.14700
F271        F  0.54894171  0.84866679  0.24754421    -0.12600
F272        F  0.58873642  0.76550172  0.33013030    -0.13100
F273        F  0.51549469  0.83810123  0.29702842    -0.15400
F274        F  0.62604400  0.78406551  0.28662619    -0.14000
F275        F  0.60120126  0.87630532  0.24564355    -0.14000
F276        F  0.65935313  0.78183887  0.19110013    -0.15400
C277        C  0.40552075  0.81612005  0.34283928     0.14700
C278        C  0.38665498  0.79126948  0.34665820     0.01600
C279        C  0.39875922  0.76379323  0.35637499     0.16600
C280        C  0.42962323  0.76111976  0.36176763     0.26000
C281        C  0.44856399  0.78591398  0.35736752    -0.40300
C282        C  0.43622391  0.81348965  0.34818982     0.33100
C283        C  0.35441221  0.79431242  0.33999938     0.01700
F284        F  0.38078445  0.73949381  0.35990513    -0.12600
F285        F  0.45400173  0.83795029  0.34456946    -0.13100
C286        C  0.34463987  0.79585734  0.31011994     0.16600
C287        C  0.31451556  0.80164714  0.30355230     0.26000
C288        C  0.29354501  0.80633518  0.32692014    -0.40300
C289        C  0.30353851  0.80403462  0.35696355     0.33000
C290        C  0.33369843  0.79802777  0.36336067     0.14700
F291        F  0.36452623  0.79243087  0.28725683    -0.12600
F292        F  0.28433146  0.80808871  0.38027138    -0.13100
F293        F  0.30628638  0.80373009  0.27424399    -0.15400
F294        F  0.34295924  0.79692001  0.39240732    -0.14000
F295        F  0.39411241  0.84295957  0.33390735    -0.14000
F296        F  0.44115145  0.73419898  0.37026768    -0.15400
C297        C  0.79527502  0.90174377  0.18499594     0.14700
C298        C  0.79066690  0.93207927  0.17761374     0.01600
C299        C  0.76257916  0.94138170  0.16667055     0.16600
C300        C  0.73975453  0.92035410  0.16210944     0.26000
C301        C  0.74488368  0.88988835  0.16833790    -0.40300
C302        C  0.77255320  0.88076272  0.18026891     0.33100
C303        C  0.81594134  0.95336772  0.17929815     0.01700
F304        F  0.75777805  0.97052320  0.15912127    -0.12600
F305        F  0.77762434  0.85144228  0.18691603    -0.13100
C306        C  0.84134060  0.94866918  0.16125890     0.16600
C307        C  0.86604919  0.96767928  0.16353322     0.26000
C308        C  0.86577844  0.99176684  0.18389751    -0.40300
C309        C  0.84001544  0.99700881  0.20138054     0.33000
C310        C  0.81522363  0.97788702  0.19909437     0.14700
F311        F  0.84215390  0.92556810  0.14140115    -0.12600
F312        F  0.83938528  0.01982366  0.22155739    -0.13100
F313        F  0.89030515  0.96259617  0.14579040    -0.15400
F314        F  0.79098197  0.98262116  0.21693443    -0.14000
F315        F  0.82200201  0.89244037  0.19633710    -0.14000
F316        F  0.71309646  0.92945005  0.15046233    -0.15400
C317        C  0.04406095  0.91460525  0.24850852     0.14700
C318        C  0.04939672  0.94349668  0.23703974     0.01600
C319        C  0.07881803  0.95444996  0.23625652     0.16600
C320        C  0.10261636  0.93693541  0.24689305     0.26000
C321        C  0.09747274  0.90793845  0.25882289    -0.40300
C322        C  0.06779908  0.89699541  0.25935862     0.33100
C323        C  0.02427837  0.96227262  0.22589606     0.01700
F324        F  0.08456777  0.98207211  0.22471206    -0.12600
F325        F  0.06154225  0.86944405  0.27076604    -0.13100
C326        C  0.01678273  0.98925322  0.24042497     0.16600
C327        C  0.99228303  0.00639132  0.23061464     0.26000
C328        C  0.97498303  0.99691579  0.20593634    -0.40300
C329        C  0.98328248  0.97039713  0.19077706     0.33000
C330        C  0.00757563  0.95318112  0.20079274     0.14700
F331        F  0.03251576  0.99837868  0.26487399    -0.12600
F332        F  0.96772379  0.96104097  0.16629160    -0.13100
F333        F  0.98455665  0.03138315  0.24622844    -0.15400
F334        F  0.01485159  0.92757590  0.18596149    -0.14000
F335        F  0.01568471  0.90367008  0.24974823    -0.14000
F336        F  0.13072789  0.94848639  0.24517006    -0.15400
C337        C  0.90748185  0.20856105  0.18979445     0.14700
C338        C  0.90120308  0.18584535  0.16887660     0.01600
C339        C  0.88744015  0.19352373  0.14157996     0.16600
C340        C  0.88001039  0.22335033  0.13518729     0.26000
C341        C  0.88625890  0.24642309  0.15602416    -0.40300
C342        C  0.90023414  0.23856341  0.18343879     0.33100
C343        C  0.90799133  0.15392579  0.17564270     0.01700
F344        F  0.88061864  0.17191318  0.12122038    -0.12600
F345        F  0.90678637  0.25977958  0.20428085    -0.13100
C346        C  0.89302345  0.13917073  0.19916928     0.16600
C347        C  0.89701404  0.10833170  0.20367618     0.26000
C348        C  0.91631729  0.09176555  0.18496796    -0.40300
C349        C  0.93210144  0.10669613  0.16207529     0.33000
C350        C  0.92784818  0.13751956  0.15735252     0.14700
F351        F  0.87353242  0.15440150  0.21697041    -0.12600
F352        F  0.95051988  0.09116278  0.14341196    -0.13100
F353        F  0.88166086  0.09447050  0.22607360    -0.15400
F354        F  0.94270086  0.15131001  0.13457741    -0.14000
F355        F  0.92093836  0.20169054  0.21630298    -0.14000
F356        F  0.86685533  0.22947138  0.10834614    -0.15400
C357        C  0.81218026  0.56138767  0.02969481     0.14700
C358        C  0.79864291  0.53330221  0.02522824     0.01600
C359        C  0.77503066  0.53077058  0.00440678     0.16600
C360        C  0.76507191  0.55599741  0.98839626     0.26000
C361        C  0.77847175  0.58414397  0.99312224    -0.40300
C362        C  0.80217611  0.58656817  0.01382380     0.33100
C363        C  0.80911680  0.50683967  0.04255915     0.01700
F364        F  0.76171538  0.50383814  0.99952621    -0.12600
F365        F  0.81573407  0.61340326  0.01859937    -0.13100
C366        C  0.78958498  0.49176971  0.06215348     0.16600
C367        C  0.79968533  0.46725942  0.07909878     0.26000
C368        C  0.82966141  0.45722194  0.07676369    -0.40300
C369        C  0.84915702  0.47250595  0.05698155     0.33000
C370        C  0.83894943  0.49701485  0.04012692     0.14700
F371        F  0.76073142  0.50107791  0.06519839    -0.12600
F372        F  0.87820279  0.46386476  0.05383561    -0.13100
F373        F  0.77983264  0.45311182  0.09737350    -0.15400
F374        F  0.85815397  0.51095666  0.02100208    -0.14000
F375        F  0.83469413  0.56454659  0.04998862    -0.14000
F376        F  0.74175416  0.55315208  0.96898528    -0.15400
C377        C  0.75909160  0.13201159  0.65758271     0.14700
C378        C  0.76871911  0.10257754  0.66324644     0.01600
C379        C  0.79943681  0.09573234  0.66232201     0.16600
C380        C  0.82040723  0.11832872  0.65620181     0.26000
C381        C  0.81078333  0.14792702  0.65067058    -0.40300
C382        C  0.77990205  0.15450487  0.65129280     0.33100
C383        C  0.74636257  0.07961105  0.67124014     0.01700
F384        F  0.80905671  0.06734148  0.66784952    -0.12600
F385        F  0.76993098  0.18297568  0.64683089    -0.13100
C386        C  0.73539797  0.05976364  0.64939300     0.16600
C387        C  0.71098374  0.04113098  0.65592628     0.26000
C388        C  0.69728040  0.04228902  0.68437355    -0.40300
C389        C  0.70928956  0.06118098  0.70660562     0.33000
C390        C  0.73360634  0.07975133  0.70004042     0.14700
F391        F  0.74735110  0.05960122  0.62134059    -0.12600
F392        F  0.69702117  0.06206380  0.73452055    -0.13100
F393        F  0.69961376  0.02332541  0.63398570    -0.15400
F394        F  0.74412823  0.09866748  0.72147063    -0.14000
F395        F  0.72943664  0.13897477  0.65851821    -0.14000
F396        F  0.85003778  0.11132186  0.65546015    -0.15400
C397        C  0.83451043  0.31343538  0.50036597     0.14700
C398        C  0.82045158  0.30962051  0.52843845     0.01600
C399        C  0.79886768  0.33077495  0.53751997     0.16600
C400        C  0.79044250  0.35425778  0.51858883     0.26000
C401        C  0.80503416  0.35886020  0.49082477    -0.40300
C402        C  0.82745630  0.33817326  0.48209642     0.33100
C403        C  0.82773778  0.28377924  0.54848495     0.01700
F404        F  0.78593459  0.32895116  0.56509043    -0.12600
F405        F  0.84309612  0.34205420  0.45622292    -0.13100
C406        C  0.85757296  0.27686044  0.55624356     0.16600
C407        C  0.86385581  0.25424982  0.57726128     0.26000
C408        C  0.84041403  0.23898333  0.59207474    -0.40300
C409        C  0.81058291  0.24572886  0.58386021     0.33000
C410        C  0.80445827  0.26705858  0.56168782     0.14700
F411        F  0.88070003  0.29274306  0.54442972    -0.12600
F412        F  0.78702778  0.23285138  0.59823837    -0.13100
F413        F  0.89296120  0.24746666  0.58317951    -0.15400
F414        F  0.77547047  0.27182300  0.55355569    -0.14000
F415        F  0.85481851  0.29302891  0.49036586    -0.14000
F416        F  0.76732854  0.37205099  0.52741025    -0.15400
C417        C  0.77900322  0.37893222  0.34254880     0.14700
C418        C  0.79732413  0.39907335  0.32669441     0.01600
C419        C  0.80988297  0.42362105  0.34187727     0.16600
C420        C  0.80534167  0.42727609  0.37277086     0.26000
C421        C  0.78832741  0.40625182  0.38909747    -0.40300
C422        C  0.77459948  0.38241786  0.37354699     0.33100
C423        C  0.80624441  0.39268797  0.29529726     0.01700
F424        F  0.82748635  0.44345921  0.32689155    -0.12600
F425        F  0.75735033  0.36222893  0.38847547    -0.13100
C426        C  0.78624485  0.39691099  0.27129742     0.16600
C427        C  0.79539189  0.39103603  0.24168683     0.26000
C428        C  0.82469233  0.38049466  0.23565793    -0.40300
C429        C  0.84446053  0.37605202  0.26003797     0.33000
C430        C  0.83532430  0.38221117  0.28942915     0.14700
F431        F  0.75797896  0.40699839  0.27653747    -0.12600
F432        F  0.87293304  0.36618641  0.25553939    -0.13100
F433        F  0.77539151  0.39523358  0.21905279    -0.15400
F434        F  0.85490979  0.37773728  0.31238327    -0.14000
F435        F  0.76656954  0.35510726  0.32825397    -0.14000
F436        F  0.81908197  0.45038878  0.38704096    -0.15400
C437        C  0.98371957  0.21143086  0.76206129     0.14700
C438        C  0.96346298  0.23321151  0.75155607     0.01600
C439        C  0.96376512  0.26203122  0.76423249     0.16600
C440        C  0.98341592  0.26873897  0.78777667     0.26000
C441        C  0.00300421  0.24665377  0.79911479    -0.40300
C442        C  0.00335148  0.21807566  0.78570690     0.33100
C443        C  0.94070626  0.22537856  0.72872758     0.01700
F444        F  0.94469048  0.28353303  0.75402262    -0.12600
F445        F  0.02154683  0.19613634  0.79655956    -0.13100
C446        C  0.91050897  0.22242009  0.73718355     0.16600
C447        C  0.88874888  0.21494992  0.71584036     0.26000
C448        C  0.89681539  0.21073527  0.68559878    -0.40300
C449        C  0.92706812  0.21374526  0.67713578     0.33000
C450        C  0.94890739  0.22080831  0.69861723     0.14700
F451        F  0.90218010  0.22662954  0.76622123    -0.12600
F452        F  0.93546474  0.20941514  0.64813612    -0.13100
F453        F  0.85967460  0.21250481  0.72456301    -0.15400
F454        F  0.97798499  0.22356667  0.69002077    -0.14000
F455        F  0.98350427  0.18334233  0.75029563    -0.14000
F456        F  0.98315909  0.29675963  0.79972623    -0.15400
C457        C  0.97108631  0.31314838  0.92846079     0.14700
C458        C  0.97372340  0.29794085  0.95596931     0.01600
C459        C  0.99423621  0.27409305  0.95854726     0.16600
C460        C  0.01142879  0.26515656  0.93371269     0.26000
C461        C  0.00818264  0.27985368  0.90586167    -0.40300
C462        C  0.98811385  0.30421702  0.90365000     0.33100
C463        C  0.95484733  0.30705852  0.98179581     0.01700
F464        F  0.99751222  0.25944044  0.98511337    -0.12600
F465        F  0.98494400  0.31939222  0.87735293    -0.13100
C466        C  0.93173915  0.28837682  0.99219433     0.16600
C467        C  0.91304738  0.29763590  0.01578841     0.26000
C468        C  0.91724498  0.32582827  0.02960592    -0.40300
C469        C  0.94076070  0.34435711  0.01904065     0.33000
C470        C  0.95919153  0.33505481  0.99538304     0.14700
F471        F  0.92697580  0.26129929  0.97911125    -0.12600
F472        F  0.94619779  0.37158585  0.03154847    -0.13100
F473        F  0.89103560  0.27881205  0.02514444    -0.15400
F474        F  0.98160309  0.35334522  0.98586121    -0.14000
F475        F  0.95142141  0.33626104  0.92546383    -0.14000
F476        F  0.03035786  0.24143084  0.93658121    -0.15400
C477        C  0.14686149  0.22201124  0.86972856     0.14700
C478        C  0.16430641  0.23512649  0.84693624     0.01600
C479        C  0.15092397  0.25571376  0.82712945     0.16600
C480        C  0.12029243  0.26226712  0.82932523     0.26000
C481        C  0.10254068  0.24854852  0.85158687    -0.40300
C482        C  0.11624213  0.22881795  0.87217856     0.33100
C483        C  0.19584639  0.22572999  0.84223841     0.01700
F484        F  0.16734213  0.26858146  0.80490020    -0.12600
F485        F  0.09970282  0.21509428  0.89379169    -0.13100
C486        C  0.20211872  0.19686528  0.83139019     0.16600
C487        C  0.23160781  0.18825947  0.82496678     0.26000
C488        C  0.25564000  0.20836250  0.82952711    -0.40300
C489        C  0.24921063  0.23725470  0.84082893     0.33000
C490        C  0.21956948  0.24584899  0.84696661     0.14700
F491        F  0.17947307  0.17717432  0.82631384    -0.12600
F492        F  0.27146590  0.25750221  0.84536288    -0.13100
F493        F  0.23649568  0.16010235  0.81439877    -0.15400
F494        F  0.21397914  0.27386873  0.85752816    -0.14000
F495        F  0.15942617  0.20221033  0.88925355    -0.14000
F496        F  0.10786718  0.28186779  0.80951204    -0.15400
C497        C  0.53849287  0.05739092  0.71656784     0.14700
C498        C  0.54241944  0.07713926  0.74083929     0.01600
C499        C  0.57084815  0.07992635  0.75404206     0.16600
C500        C  0.59503927  0.06313897  0.74320656     0.26000
C501        C  0.59119866  0.04321973  0.71893740    -0.40300
C502        C  0.56267965  0.04053093  0.70569753     0.33100
C503        C  0.51676769  0.09470159  0.75245286     0.01700
F504        F  0.57523711  0.09925438  0.77718467    -0.12600
F505        F  0.55841910  0.02220655  0.68173600    -0.13100
C506        C  0.50571330  0.08940058  0.78148405     0.16600
C507        C  0.48050731  0.10493572  0.79196425     0.26000
C508        C  0.46588133  0.12626806  0.77353811    -0.40300
C509        C  0.47781410  0.13213956  0.74471436     0.33000
C510        C  0.50290742  0.11641963  0.73432515     0.14700
F511        F  0.51889283  0.06851418  0.79941383    -0.12600
F512        F  0.46497609  0.15268401  0.72616439    -0.13100
F513        F  0.47036971  0.09875326  0.82006290    -0.15400
F514        F  0.51374425  0.12240919  0.70644611    -0.14000
F515        F  0.51111950  0.05430459  0.70356959    -0.14000
F516        F  0.62219585  0.06609028  0.75669519    -0.15400
C517        C  0.09949495  0.71420485  0.72791432     0.14700
C518        C  0.10603320  0.71139752  0.69720670     0.01600
C519        C  0.13418686  0.70058055  0.68828756     0.16600
C520        C  0.15578702  0.69297080  0.70974919     0.26000
C521        C  0.14958779  0.69602290  0.74065174    -0.40300
C522        C  0.12109975  0.70656471  0.74952840     0.33100
C523        C  0.08421306  0.72100230  0.67415761     0.01700
F524        F  0.14095339  0.69803302  0.65864999    -0.12600
F525        F  0.11418573  0.70945809  0.77909138    -0.13100
C526        C  0.08691894  0.74943404  0.66091774     0.16600
C527        C  0.06810146  0.75780946  0.63722391     0.26000
C528        C  0.04639404  0.73772807  0.62614778    -0.40300
C529        C  0.04323489  0.70946689  0.63999625     0.33000
C530        C  0.06203956  0.70120094  0.66386993     0.14700
F531        F  0.10816408  0.76890873  0.67069703    -0.12600
F532        F  0.02286786  0.68939312  0.62959830    -0.13100
F533        F  0.07106720  0.78562320  0.62508492    -0.15400
F534        F  0.05928502  0.67353356  0.67635381    -0.14000
F535        F  0.07242000  0.72491649  0.73687987    -0.14000
F536        F  0.18327368  0.68392612  0.70021825    -0.15400
C537        C  0.12430775  0.80063786  0.44556063     0.14700
C538        C  0.09299955  0.80454641  0.44483397     0.01600
C539        C  0.07955757  0.81577422  0.41859455     0.16600
C540        C  0.09692727  0.82243297  0.39333105     0.26000
C541        C  0.12831763  0.81826050  0.39378939    -0.40300
C542        C  0.14183122  0.80758205  0.42039358     0.33100
C543        C  0.07432058  0.79643107  0.47122165     0.01700
F544        F  0.04952137  0.82075962  0.41755868    -0.12600
F545        F  0.17193502  0.80319515  0.42197174    -0.13100
C546        C  0.08027007  0.80894219  0.49956947     0.16600
C547        C  0.06361486  0.80016013  0.52469942     0.26000
C548        C  0.04058239  0.77874799  0.52197129    -0.40300
C549        C  0.03396967  0.76698631  0.49340837     0.33000
C550        C  0.05074875  0.77567766  0.46829502     0.14700
F551        F  0.10217434  0.82980553  0.50290109    -0.12600
F552        F  0.01221261  0.74598388  0.49001434    -0.13100
F553        F  0.06995790  0.81267071  0.55176572    -0.15400
F554        F  0.04473081  0.76289714  0.44128181    -0.14000
F555        F  0.13788956  0.78933349  0.47044486    -0.14000
F556        F  0.08289319  0.83350743  0.36859565    -0.15400
C557        C  0.33261781  0.58183462  0.73575968     0.14700
C558        C  0.31100431  0.57255083  0.75684611     0.01600
C559        C  0.31537387  0.54506564  0.77186345     0.16600
C560        C  0.34106077  0.52766142  0.76640018     0.26000
C561        C  0.36242636  0.53665118  0.74475666    -0.40300
C562        C  0.35741449  0.56379660  0.72914741     0.33100
C563        C  0.28432381  0.59190195  0.76304980     0.01700
F564        F  0.29463816  0.53482143  0.79169635    -0.12600
F565        F  0.37622073  0.57288571  0.70695163    -0.13100
C566        C  0.26753355  0.60394603  0.73911142     0.16600
C567        C  0.24539119  0.62558098  0.74428943     0.26000
C568        C  0.23825477  0.63469857  0.77379920    -0.40300
C569        C  0.25335141  0.62068523  0.79792953     0.33000
C570        C  0.27654805  0.60007596  0.79260405     0.14700
F571        F  0.27308517  0.59529521  0.71039437    -0.12600
F572        F  0.24598600  0.62719978  0.82679937    -0.13100
F573        F  0.23224763  0.63872327  0.72010065    -0.15400
F574        F  0.29227955  0.58923885  0.81638926    -0.14000
F575        F  0.33007543  0.60882144  0.72176405    -0.14000
F576        F  0.34527269  0.50241947  0.78298109    -0.15400
C577        C  0.39308752  0.38859950  0.72112103     0.14700
C578        C  0.40852688  0.37425171  0.74463409     0.01600
C579        C  0.42783137  0.39110823  0.76296606     0.16600
C580        C  0.43094666  0.42203443  0.75847758     0.26000
C581        C  0.41446526  0.43667217  0.73584239    -0.40300
C582        C  0.39587466  0.41965151  0.71687574     0.33100
C583        C  0.40190760  0.34260682  0.75234329     0.01700
F584        F  0.44291619  0.37769138  0.78585023    -0.12600
F585        F  0.38008678  0.43321961  0.69457051    -0.13100
C586        C  0.41201679  0.31879132  0.73435950     0.16600
C587        C  0.40562354  0.28895934  0.74235062     0.26000
C588        C  0.38870758  0.28247761  0.76843597    -0.40300
C589        C  0.37850148  0.30676028  0.78615284     0.33000
C590        C  0.38511179  0.33632747  0.77817880     0.14700
F591        F  0.42847510  0.32443700  0.70932743    -0.12600
F592        F  0.36218370  0.30214739  0.81149263    -0.13100
F593        F  0.41612890  0.26655868  0.72457196    -0.15400
F594        F  0.37482679  0.35906213  0.79568905    -0.14000
F595        F  0.37425420  0.37274856  0.70321108    -0.14000
F596        F  0.44885829  0.43797840  0.77724877    -0.15400
C597        C  0.22328432  0.74463543  0.87866758     0.14700
C598        C  0.22639958  0.77486742  0.87031803     0.01600
C599        C  0.22290722  0.78301044  0.83999468     0.16600
C600        C  0.21613939  0.76128167  0.81835999     0.26000
C601        C  0.21295303  0.73097178  0.82667364    -0.40300
C602        C  0.21676466  0.72283209  0.85701193     0.33100
C603        C  0.23307485  0.79804750  0.89317315     0.01700
F604        F  0.22564240  0.81213581  0.83143560    -0.12600
F605        F  0.21352391  0.69382289  0.86576905    -0.13100
C606        C  0.26023000  0.81389580  0.89214023     0.16600
C607        C  0.26586879  0.83701596  0.91259332     0.26000
C608        C  0.24421305  0.84505602  0.93421873    -0.40300
C609        C  0.21739696  0.82845475  0.93581622     0.33000
C610        C  0.21194682  0.80508920  0.91550762     0.14700
F611        F  0.28128271  0.80697179  0.87121408    -0.12600
F612        F  0.19583038  0.83575234  0.95607332    -0.13100
F613        F  0.29257374  0.85155938  0.91127828    -0.15400
F614        F  0.18548658  0.79011366  0.91683366    -0.14000
F615        F  0.22681640  0.73623568  0.90778992    -0.14000
F616        F  0.21320228  0.76978049  0.78919261    -0.15400
C617        C  0.24718965  0.86080497  0.14520439     0.14700
C618        C  0.23429450  0.88599364  0.13137512     0.01600
C619        C  0.21807428  0.90660728  0.14877567     0.16600
C620        C  0.21424688  0.90177417  0.17963972     0.26000
C621        C  0.22633218  0.87594347  0.19352678    -0.40300
C622        C  0.24320335  0.85572143  0.17595473     0.33100
C623        C  0.23725181  0.89015411  0.09859097     0.01700
F624        F  0.20554995  0.93117685  0.13573716    -0.12600
F625        F  0.25562688  0.83079985  0.18841355    -0.13100
C626        C  0.21339951  0.88270810  0.07940205     0.16600
C627        C  0.21690096  0.88465209  0.04818687     0.26000
C628        C  0.24421740  0.89443620  0.03578186    -0.40300
C629        C  0.26786514  0.90241232  0.05513183     0.33000
C630        C  0.26443632  0.90011717  0.08629825     0.14700
F631        F  0.18694468  0.87300827  0.09095034    -0.12600
F632        F  0.29460369  0.91155343  0.04379183    -0.13100
F633        F  0.19355896  0.87725705  0.03006836    -0.15400
F634        F  0.28771563  0.90736864  0.10455240    -0.14000
F635        F  0.26296428  0.84065020  0.12865592    -0.14000
F636        F  0.19753972  0.92168781  0.19555833    -0.11000
C637        C  0.26992531  0.98871504  0.90200750     0.14700
C638        C  0.29405717  0.00508119  0.91398350     0.01600
C639        C  0.30669741  0.99581674  0.94144806     0.16600
C640        C  0.29605839  0.97011439  0.95613271     0.26000
C641        C  0.27227802  0.95335178  0.94381160    -0.40300
C642        C  0.25897119  0.96333641  0.91686981     0.33100
C643        C  0.30644047  0.03117873  0.89723377     0.01700
F644        F  0.32945402  0.01162952  0.95403474    -0.12600
F645        F  0.23523201  0.94853751  0.90486149    -0.13100
C646        C  0.28762993  0.05498691  0.88843844     0.16600
C647        C  0.29874452  0.07845905  0.87073321     0.26000
C648        C  0.32905606  0.07889175  0.86188115    -0.40300
C649        C  0.34812651  0.05560897  0.87153772     0.33000
C650        C  0.33685730  0.03182379  0.88878976     0.14700
F651        F  0.25849701  0.05567035  0.89731419    -0.12600
F652        F  0.37747727  0.05535185  0.86343004    -0.13100
F653        F  0.28002204  0.10124873  0.86295179    -0.15400
F654        F  0.35546900  0.00890121  0.89642689    -0.14000
F655        F  0.25747796  0.99678841  0.87534082    -0.14000
F656        F  0.30979797  0.96103747  0.98182371    -0.15400
C657        C  0.83021433  0.75891336  0.59479580     0.14700
C658        C  0.85021353  0.73678818  0.58432581     0.01600
C659        C  0.83946517  0.70754460  0.57929579     0.16600
C660        C  0.80957781  0.70035107  0.58556280     0.26000
C661        C  0.79014496  0.72207180  0.59755863    -0.40300
C662        C  0.80049921  0.75149742  0.60173017     0.33100
C663        C  0.88269700  0.74342163  0.58105515     0.01700
F664        F  0.85833468  0.68549643  0.56997505    -0.12600
F665        F  0.78184062  0.77297276  0.61266150    -0.13100
C666        C  0.89905436  0.75427880  0.60573389     0.16600
C667        C  0.93002832  0.75858809  0.60366214     0.26000
C668        C  0.94561529  0.75131706  0.57707018    -0.40300
C669        C  0.92904465  0.74097733  0.55212751     0.33000
C670        C  0.89788766  0.73735773  0.55405503     0.14700
F671        F  0.88517078  0.75973928  0.63233250    -0.12600
F672        F  0.94304552  0.73318977  0.52619227    -0.13100
F673        F  0.94471755  0.76998534  0.62780083    -0.15400
F674        F  0.88255281  0.72759767  0.52959298    -0.14000
F675        F  0.83963345  0.78759332  0.59875030    -0.14000
F676        F  0.80010422  0.67166363  0.58173499    -0.15400
C677        C  0.76412740  0.65656428  0.78259139     0.14700
C678        C  0.74075662  0.64882720  0.80243723     0.01600
C679        C  0.71168095  0.64467597  0.79087043     0.16600
C680        C  0.70616563  0.64782345  0.76010660     0.26000
C681        C  0.72943065  0.65585545  0.74042778    -0.40300
C682        C  0.75838295  0.66047053  0.75185909     0.33100
C683        C  0.74633146  0.64564868  0.83522775     0.01700
F684        F  0.68835723  0.63866280  0.80954315    -0.12600
F685        F  0.78108158  0.66850862  0.73320409    -0.13100
C686        C  0.75908753  0.66930332  0.85171077     0.16600
C687        C  0.76294314  0.66681821  0.88283468     0.26000
C688        C  0.75346198  0.64086823  0.89829971    -0.40300
C689        C  0.74108122  0.61704319  0.88164348     0.33000
C690        C  0.73783113  0.61932597  0.85044767     0.14700
F691        F  0.76696206  0.69526621  0.83781636    -0.12600
F692        F  0.73101968  0.59191403  0.89563380    -0.13100
F693        F  0.77607547  0.68984127  0.89781679    -0.15400
F694        F  0.72613681  0.59579825  0.83506337    -0.14000
F695        F  0.79253720  0.66013337  0.79294072    -0.14000
F696        F  0.67772406  0.64450579  0.74969103    -0.15400
C697        C  0.67954633  0.83798209  0.69003604     0.14700
C698        C  0.65052461  0.84957239  0.68649476     0.01600
C699        C  0.62676995  0.82993933  0.68036703     0.16600
C700        C  0.63219598  0.79920460  0.67623079     0.26000
C701        C  0.66164766  0.78754175  0.67816396    -0.40300
C702        C  0.68509616  0.80732625  0.68616596     0.33100
C703        C  0.64560327  0.88239503  0.68744041     0.01700
F704        F  0.59847009  0.84077063  0.67716586    -0.12600
F705        F  0.71369163  0.79733129  0.68949752    -0.13100
C706        C  0.65472684  0.90026415  0.66311921     0.16600
C707        C  0.65213846  0.93151007  0.66450014     0.26000
C708        C  0.64072000  0.94550893  0.69045654    -0.40300
C709        C  0.63075135  0.92744613  0.71447938     0.33000
C710        C  0.63311826  0.89611172  0.71290965     0.14700
F711        F  0.66649665  0.88736941  0.63812512    -0.12600
F712        F  0.62013408  0.94014400  0.74007597    -0.13100
F713        F  0.66092207  0.94813526  0.64047558    -0.15400
F714        F  0.62430902  0.87919287  0.73669743    -0.14000
F715        F  0.70271982  0.85659278  0.69661309    -0.14000
F716        F  0.60868248  0.78118485  0.66931702    -0.15400
C717        C  0.61756737  0.72714294  0.49366643     0.14700
C718        C  0.58827102  0.73734777  0.49867496     0.01600
C719        C  0.57658130  0.73740804  0.52786192     0.16600
C720        C  0.59417019  0.72767606  0.55201491     0.26000
C721        C  0.62388500  0.71757886  0.54727041    -0.40300
C722        C  0.63523999  0.71727134  0.51764412     0.33100
C723        C  0.57020159  0.74843271  0.47329950     0.01700
F724        F  0.54822212  0.74730735  0.53297985    -0.12600
F725        F  0.66342385  0.70737183  0.51164963    -0.13100
C726        C  0.54865375  0.72990119  0.45986490     0.16600
C727        C  0.53319396  0.73964891  0.43428944     0.26000
C728        C  0.53904285  0.76815319  0.42195880    -0.40300
C729        C  0.56003719  0.78699196  0.43611579     0.33000
C730        C  0.57557677  0.77711806  0.46153726     0.14700
F731        F  0.54347385  0.70196003  0.47087939    -0.12600
F732        F  0.56566408  0.81487086  0.42516190    -0.13100
F733        F  0.51368757  0.72065948  0.42067277    -0.15400
F734        F  0.59623701  0.79534293  0.47448239    -0.14000
F735        F  0.62901570  0.72665851  0.46539688    -0.14000
F736        F  0.58203534  0.72843069  0.57998474    -0.15400
C737        C  0.73197381  0.56651222  0.52483048     0.14700
C738        C  0.73725266  0.53825426  0.53766956     0.01600
C739        C  0.73337749  0.53456691  0.56881192     0.16600
C740        C  0.72497128  0.55891818  0.58693865     0.26000
C741        C  0.72016523  0.58757474  0.57424098    -0.40300
C742        C  0.72354091  0.59085803  0.54276387     0.33100
C743        C  0.74735776  0.51283113  0.51860080     0.01700
F744        F  0.73842784  0.50744504  0.58181265    -0.12600
F745        F  0.71875561  0.61766203  0.52901642    -0.13100
C746        C  0.77449168  0.51467843  0.50249171     0.16600
C747        C  0.78451068  0.49038592  0.48519010     0.26000
C748        C  0.76757603  0.46392846  0.48379524    -0.40300
C749        C  0.74028611  0.46219561  0.49949136     0.33000
C750        C  0.73016797  0.48649232  0.51663770     0.14700
F751        F  0.79175612  0.53966915  0.50434684    -0.12600
F752        F  0.72357630  0.43677419  0.49834417    -0.13100
F753        F  0.81124016  0.49223516  0.47071113    -0.15400
F754        F  0.70351846  0.48437213  0.53123518    -0.14000
F755        F  0.73469122  0.57048583  0.49468928    -0.14000
F756        F  0.72178386  0.55433612  0.61692522    -0.15400
C757        C  0.54699887  0.61555232  0.69425813     0.14700
C758        C  0.54906370  0.58407417  0.69345165     0.01600
C759        C  0.57595016  0.57071987  0.68395934     0.16600
C760        C  0.60019911  0.58847393  0.67494691     0.26000
C761        C  0.59807237  0.62015140  0.67512493    -0.40300
C762        C  0.57114558  0.63341724  0.68513418     0.33100
C763        C  0.52269385  0.56535446  0.70135095     0.01700
F764        F  0.57843499  0.54038451  0.68246105    -0.12600
F765        F  0.56808571  0.66370451  0.68632655    -0.13100
C766        C  0.49557099  0.56928792  0.68575655     0.16600
C767        C  0.47014666  0.55289311  0.69382265     0.26000
C768        C  0.47133163  0.53200709  0.71752639    -0.40300
C769        C  0.49873767  0.52718913  0.73245995     0.33000
C770        C  0.52422359  0.54382612  0.72449710     0.14700
F771        F  0.49379794  0.58889129  0.66243206    -0.12600
F772        F  0.50054791  0.50718622  0.75542806    -0.13100
F773        F  0.44432777  0.55717614  0.67818966    -0.15400
F774        F  0.55012785  0.53958427  0.73998547    -0.14000
F775        F  0.52150634  0.62904822  0.70409516    -0.14000
F776        F  0.62549302  0.57442443  0.66536593    -0.15400
C777        C  0.23868531  0.46416642  0.24339449     0.14700
C778        C  0.23650960  0.44361371  0.26736617     0.01600
C779        C  0.21104764  0.44455044  0.28604209     0.16600
C780        C  0.18770134  0.46473401  0.28009693     0.26000
C781        C  0.18962917  0.48474210  0.25575079    -0.40300
C782        C  0.21549285  0.48467965  0.23776450     0.33100
C783        C  0.26023795  0.42062578  0.27236727     0.01700
F784        F  0.20867653  0.42569964  0.30991921    -0.12600
F785        F  0.21748762  0.50331824  0.21369401    -0.13100
C786        C  0.29036609  0.42914732  0.27619646     0.16600
C787        C  0.31257945  0.40744938  0.28117822     0.26000
C788        C  0.30504527  0.37686718  0.28279912    -0.40300
C789        C  0.27500962  0.36827274  0.27867748     0.33000
C790        C  0.25284010  0.38992451  0.27334055     0.14700
F791        F  0.29818047  0.45857392  0.27592035    -0.12600
F792        F  0.26724830  0.33882616  0.27922931    -0.13100
F793        F  0.34138292  0.41637219  0.28533563    -0.15400
F794        F  0.22417041  0.38085050  0.26860253    -0.14000
F795        F  0.26258715  0.46338490  0.22451776    -0.14000
F796        F  0.16286977  0.46438885  0.29775513    -0.15400
C797        C  0.17309780  0.69241886  0.24177450     0.14700
C798        C  0.14547704  0.67966631  0.24996452     0.01600
C799        C  0.12364967  0.69811008  0.26343147     0.16600
C800        C  0.12966734  0.72844262  0.26941334     0.26000
C801        C  0.15765043  0.74117310  0.26177274    -0.40300
C802        C  0.17909291  0.72270249  0.24744475     0.33100
C803        C  0.14049075  0.64679768  0.24612098     0.01700
F804        F  0.09646146  0.68668785  0.27098977    -0.12600
F805        F  0.20630768  0.73364682  0.23930176    -0.13100
C806        C  0.13346982  0.62871651  0.27113042     0.16600
C807        C  0.13202272  0.59744772  0.26832365     0.26000
C808        C  0.13759367  0.58365681  0.24055301    -0.40300
C809        C  0.14347456  0.60159260  0.21527662     0.33000
C810        C  0.14488301  0.63291987  0.21800330     0.14700
F811        F  0.12928672  0.64121501  0.29861416    -0.12600
F812        F  0.14854595  0.58868620  0.18812696    -0.13100
F813        F  0.12562561  0.58049675  0.29286116    -0.15400
F814        F  0.15079895  0.64971356  0.19323041    -0.14000
F815        F  0.19494258  0.67518783  0.22932488    -0.14000
F816        F  0.10829059  0.74501039  0.28345316    -0.15400
C817        C  0.00176668  0.43837111  0.15405644     0.14700
C818        C  0.01215252  0.43417540  0.18345816     0.01600
C819        C  0.99773810  0.41344426  0.20228271     0.16600
C820        C  0.97261459  0.39764324  0.19207055     0.26000
C821        C  0.96136310  0.40255999  0.16281577    -0.40300
C822        C  0.97668295  0.42278120  0.14376967     0.33100
C823        C  0.03777846  0.45193614  0.19446293     0.01700
F824        F  0.00805385  0.40852668  0.23057566    -0.12600
F825        F  0.96742823  0.42774427  0.11511490    -0.13100
C826        C  0.03342710  0.47421439  0.21632564     0.16600
C827        C  0.05757670  0.49166415  0.22614501     0.26000
C828        C  0.08644401  0.48691998  0.21429885    -0.40300
C829        C  0.09059521  0.46478764  0.19211156     0.33000
C830        C  0.06644445  0.44745971  0.18228778     0.14700
F831        F  0.00569763  0.47920410  0.22791336    -0.12600
F832        F  0.11805311  0.46012992  0.17974978    -0.13100
F833        F  0.05292727  0.51257858  0.24780636    -0.15400
F834        F  0.07104590  0.42606568  0.16107604    -0.14000
F835        F  0.01556089  0.45822083  0.13547962    -0.14000
F836        F  0.95907135  0.37804718  0.21108428    -0.15400
C837        C  0.32678154  0.27675764  0.39474421     0.14700
C838        C  0.32969352  0.24625606  0.38740503     0.01600
C839        C  0.34031469  0.23810255  0.35891098     0.16600
C840        C  0.34684236  0.26001762  0.33752251     0.26000
C841        C  0.34310237  0.29065190  0.34433009    -0.40300
C842        C  0.33342471  0.29885971  0.37331593     0.33100
C843        C  0.32018028  0.22250798  0.40846550     0.01700
F844        F  0.34379559  0.20871349  0.35163767    -0.12600
F845        F  0.33034044  0.32822148  0.38081658    -0.13100
C846        C  0.29535303  0.20463205  0.40128713     0.16600
C847        C  0.28784772  0.18001510  0.41916484     0.26000
C848        C  0.30560347  0.17221676  0.44423752    -0.40300
C849        C  0.33016551  0.19076123  0.45175822     0.33000
C850        C  0.33708966  0.21592481  0.43420469     0.14700
F851        F  0.27853978  0.21089677  0.37660413    -0.12600
F852        F  0.34843395  0.18382087  0.47517080    -0.13100
F853        F  0.26305622  0.16392703  0.41190953    -0.15400
F854        F  0.36113909  0.23307400  0.44152505    -0.14000
F855        F  0.31664583  0.28504751  0.42227592    -0.14000
F856        F  0.35549340  0.25114481  0.30966085    -0.15400
C857        C  0.29691287  0.12369360  0.66080724     0.14700
C858        C  0.31735958  0.12869793  0.63737962     0.01600
C859        C  0.34609403  0.13946149  0.64407756     0.16600
C860        C  0.35416692  0.14586404  0.67372980     0.26000
C861        C  0.33355254  0.14156746  0.69747201    -0.40300
C862        C  0.30496095  0.12983007  0.69064257     0.33100
C863        C  0.30857433  0.12411242  0.60568469     0.01700
F864        F  0.36612683  0.14457342  0.62166752    -0.12600
F865        F  0.28441922  0.12507333  0.71263760    -0.13100
C866        C  0.29045070  0.14539880  0.59112825     0.16600
C867        C  0.28469963  0.14299035  0.56032326     0.26000
C868        C  0.29716202  0.11928301  0.54347960    -0.40300
C869        C  0.31449924  0.09740384  0.55840029     0.33000
C870        C  0.32020389  0.09987821  0.58925164     0.14700
F871        F  0.27933876  0.16921194  0.60656110    -0.12600
F872        F  0.32726082  0.07451672  0.54284840    -0.13100
F873        F  0.26724403  0.16408659  0.54686300    -0.15400
F874        F  0.33778238  0.07907944  0.60299046    -0.14000
F875        F  0.26903504  0.11312928  0.65470039    -0.14000
F876        F  0.38223600  0.15638950  0.67903312    -0.15400
C877        C  0.23670905  0.96210524  0.40873265     0.14700
C878        C  0.24002441  0.99053802  0.39560776     0.01600
C879        C  0.23354382  0.99418801  0.36491873     0.16600
C880        C  0.22463607  0.96964617  0.34742577     0.26000
C881        C  0.22205391  0.94078616  0.36029141    -0.40300
C882        C  0.22778850  0.93752482  0.39139540     0.33100
C883        C  0.25069632  0.01625063  0.41385609     0.01700
F884        F  0.23655009  0.02147946  0.35166985    -0.12600
F885        F  0.22471129  0.91057766  0.40532445    -0.13100
C886        C  0.27899110  0.01519313  0.42788301     0.16600
C887        C  0.28932970  0.03965162  0.44468843     0.26000
C888        C  0.27159788  0.06554434  0.44755883    -0.40300
C889        C  0.24331095  0.06658737  0.43367090     0.33000
C890        C  0.23286090  0.04208814  0.41708088     0.14700
F891        F  0.29694953  0.99078812  0.42454025    -0.12600
F892        F  0.22580220  0.09140689  0.43628635    -0.13100
F893        F  0.31701750  0.03848005  0.45733699    -0.15400
F894        F  0.20520607  0.04346351  0.40437085    -0.14000
F895        F  0.24181936  0.95819636  0.43856970    -0.14000
F896        F  0.21882543  0.97426354  0.31783345    -0.15400
C897        C  0.45568031  0.29018141  0.16104217     0.14700
C898        C  0.46434474  0.31124481  0.18288793     0.01600
C899        C  0.49086826  0.32770681  0.17829206     0.16600
C900        C  0.50751099  0.32420110  0.15181789     0.26000
C901        C  0.49908477  0.30270945  0.13012487    -0.40300
C902        C  0.47335576  0.28515110  0.13569205     0.33100
C903        C  0.44497770  0.31649394  0.20966644     0.01700
F904        F  0.50079692  0.34722406  0.19945709    -0.12600
F905        F  0.46524146  0.26266125  0.11683304    -0.13100
C906        C  0.43330318  0.29207363  0.22594923     0.16600
C907        C  0.41128028  0.29652519  0.24781563     0.26000
C908        C  0.40168155  0.32575672  0.25535732    -0.40300
C909        C  0.41533487  0.35031642  0.24087010     0.33000
C910        C  0.43612365  0.34573340  0.21777045     0.14700
F911        F  0.44264731  0.26363859  0.22014394    -0.12600
F912        F  0.40827466  0.37888997  0.24873637    -0.13100
F913        F  0.39830025  0.27196904  0.26032383    -0.15400
F914        F  0.44641350  0.36994521  0.20240429    -0.14000
F915        F  0.42954856  0.27479985  0.16375115    -0.14000
F916        F  0.53131785  0.34256884  0.14718248    -0.15400
C917        C  0.69985920  0.34450367  0.09630361     0.14700
C918        C  0.69161570  0.31667968  0.08413799     0.01600
C919        C  0.71405024  0.29527442  0.07818154     0.16600
C920        C  0.74419963  0.30143439  0.08468373     0.26000
C921        C  0.75251577  0.32923737  0.09720932    -0.40300
C922        C  0.72986437  0.35079209  0.10267610     0.33100
C923        C  0.65944148  0.30969904  0.07918945     0.01700
F924        F  0.70672657  0.26833419  0.06604995    -0.12600
F925        F  0.73656022  0.37814356  0.11429302    -0.13100
C926        C  0.64146528  0.32841626  0.06108206     0.16600
C927        C  0.61056112  0.32336394  0.05876890     0.26000
C928        C  0.59715563  0.29965584  0.07464373    -0.40300
C929        C  0.61516711  0.28048103  0.09205868     0.33000
C930        C  0.64606789  0.28539877  0.09426226     0.14700
F931        F  0.65379280  0.35187365  0.04602728    -0.12600
F932        F  0.60268144  0.25723082  0.10728775    -0.13100
F933        F  0.59349847  0.34235928  0.04205823    -0.15400
F934        F  0.66272974  0.26721198  0.11221470    -0.14000
F935        F  0.67865682  0.36539593  0.10292858    -0.14000
F936        F  0.76505975  0.27986594  0.07938100    -0.15400
C937        C  0.45564834  0.20664753  0.93900229     0.14700
C938        C  0.45137735  0.23645067  0.94821593     0.01600
C939        C  0.42959665  0.25409957  0.93382520     0.16600
C940        C  0.41229176  0.24218345  0.91051339     0.26000
C941        C  0.41644397  0.21220769  0.90107892    -0.40300
C942        C  0.43844123  0.19461124  0.91569880     0.33100
C943        C  0.46898594  0.24881862  0.97350171     0.01700
F944        F  0.42474924  0.28283877  0.94270706    -0.12600
F945        F  0.44352453  0.16570669  0.90751050    -0.13100
C946        C  0.48782795  0.27376799  0.96932494     0.16600
C947        C  0.50399724  0.28562784  0.99355047     0.26000
C948        C  0.50138753  0.27277058  0.02228458    -0.40300
C949        C  0.48271714  0.24762363  0.02628337     0.33000
C950        C  0.46665909  0.23580506  0.00213503     0.14700
F951        F  0.49067296  0.28648576  0.94173738    -0.12600
F952        F  0.48027036  0.23425587  0.05361639    -0.13100
F953        F  0.52157684  0.31007561  0.98913350    -0.15400
F954        F  0.44834592  0.21193140  0.00681736    -0.14000
F955        F  0.47685537  0.18926040  0.95237244    -0.14000
F956        F  0.39176450  0.26026987  0.89702759    -0.15400
loop_ 
_geom_bond_atom_site_label_1 
_geom_bond_atom_site_label_2 
_geom_bond_distance 
_geom_bond_site_symmetry_2 
_ccdc_geom_bond_type 
C1            C2   1.405       .  A
C1            C6   1.403       .  A
C1          C928   1.478       .  S
C2            C3   1.407       .  A
C2            H7   1.082       .  S
C3            C4   1.406       .  A
C3          C901   1.496       .  S
C4            C5   1.401       .  A
C4            H8   1.082       .  S
C5            C6   1.403       .  A
C5          C948   1.481       .  S
C6            H9   1.084       .  S
C10          C11   1.407       .  A
C10          C15   1.407       .  A
C10         C868   1.487       .  S
C11          C12   1.403       .  A
C11          H16   1.084       .  S
C12          C13   1.401       .  A
C12         C888   1.478       .  S
C13          C14   1.406       .  A
C13          H17   1.083       .  S
C14          C15   1.405       .  A
C14         C848   1.492       .  S
C15          H18   1.082       .  S
C19          C20   1.408       .  A
C19          C24   1.405       .  A
C19         C808   1.480       .  S
C20          C21   1.405       .  A
C20          H25   1.084       .  S
C21          C22   1.399       .  A
C21         C781   1.479       .  S
C22          C23   1.401       .  A
C22          H26   1.084       .  S
C23          C24   1.406       .  A
C23         C828   1.481       .  S
C24          H27   1.084       .  S
C28          C29   1.408       .  A
C28          C33   1.405       .  A
C28         C908   1.492       .  S
C29          C30   1.404       .  A
C29          H34   1.083       .  S
C30          C31   1.403       .  A
C30         C788   1.483       .  S
C31          C32   1.404       .  A
C31          H35   1.083       .  S
C32          C33   1.403       .  A
C32         C841   1.484       .  S
C33          H36   1.083       .  S
Zn37         O41   1.959       .  S
Zn37         O42   2.040       .  S
Zn37         O46   2.013       .  S
Zn37         O53   2.043       .  S
Zn38         O41   1.951       .  S
Zn38         O43   2.054       .  S
Zn38         O45   2.002       .  S
Zn38         O49   2.026       .  S
Zn39         O41   1.942       .  S
Zn39         O44   2.012       .  S
Zn39         O47   2.003       .  S
Zn39         O50   2.023       .  S
Zn40         O41   1.945       .  S
Zn40         O48   2.018       .  S
Zn40         O51   2.015       .  S
Zn40         O52   2.013       .  S
O42          C54   1.277       .  A
O43          C55   1.279       .  A
O44          C56   1.275       .  A
O45          C54   1.272       .  A
O46          C56   1.274       .  A
O47          C55   1.272       .  A
O48          C57   1.274       .  A
O49          C58   1.276       .  A
O50          C57   1.274       .  A
O51          C58   1.274       .  A
O52          C59   1.274       .  A
O53          C59   1.277       .  A
C54         C761   1.491       .  S
C55         C741   1.497       .  S
C56         C721   1.488       .  S
C57         C661   1.472       .  S
C58         C681   1.471       .  S
C59         C701   1.495       .  S
C60          C61   1.405   1_554  A
C60          C65   1.406   1_554  A
C60         C628   1.482       .  S
C61          C62   1.405       .  A
C61          H66   1.083   1_556  S
C62          C63   1.405       .  A
C62         C641   1.490       .  S
C63          C64   1.405       .  A
C63          H67   1.084       .  S
C64          C65   1.406       .  A
C64         C608   1.488       .  S
C65          H68   1.083       .  S
C69          C70   1.407       .  A
C69          C74   1.404       .  A
C69         C581   1.482       .  S
C70          C71   1.409       .  A
C70          H75   1.082       .  S
C71          C72   1.408       .  A
C71         C561   1.500       .  S
C72          C73   1.404       .  A
C72          H76   1.083       .  S
C73          C74   1.403       .  A
C73         C768   1.484       .  S
C74          H77   1.084       .  S
C78          C79   1.409       .  A
C78          C83   1.410       .  A
C78         C668   1.493       .  S
C79          C80   1.406   1_655  A
C79          H84   1.083       .  S
C80          C81   1.402       .  A
C80         C548   1.485       .  S
C81          C82   1.401       .  A
C81          H85   1.083       .  S
C82          C83   1.403   1_455  A
C82         C528   1.485       .  S
C83          H86   1.083       .  S
C87          C88   1.409       .  A
C87          C92   1.409       .  A
C87         C568   1.498       .  S
C88          C89   1.404       .  A
C88          H93   1.083       .  S
C89          C90   1.403       .  A
C89         C601   1.485       .  S
C90          C91   1.404       .  A
C90          H94   1.083       .  S
C91          C92   1.407       .  A
C91         C521   1.488       .  S
C92          H95   1.083       .  S
Zn96        O100   1.947       .  S
Zn96        O101   2.019       .  S
Zn96        O105   2.031       .  S
Zn96        O112   2.008       .  S
Zn97        O100   1.951       .  S
Zn97        O102   2.026       .  S
Zn97        O104   2.010       .  S
Zn97        O108   2.016       .  S
Zn98        O100   1.952       .  S
Zn98        O103   2.015       .  S
Zn98        O106   2.031       .  S
Zn98        O109   2.043       .  S
Zn99        O100   1.953       .  S
Zn99        O107   2.010       .  S
Zn99        O110   2.019       .  S
Zn99        O111   2.044       .  S
O101        C113   1.275       .  A
O102        C114   1.275       .  A
O103        C115   1.274       .  A
O104        C113   1.273       .  A
O105        C115   1.276       .  A
O106        C114   1.276       .  A
O107        C116   1.274       .  A
O108        C117   1.274       .  A
O109        C116   1.278       .  A
O110        C117   1.275       .  A
O111        C118   1.276       .  A
O112        C118   1.273       .  A
C113        C941   1.489       .  S
C114        C648   1.483       .  S
C115        C488   1.491       .  S
C116        C861   1.491       .  S
C117        C508   1.490       .  S
C118        C588   1.496       .  S
C119        C120   1.409       .  A
C119        C124   1.407       .  A
C119        C481   1.486       .  S
C120        C121   1.408       .  A
C120        H125   1.084       .  S
C121        C122   1.404       .  A
C121        C461   1.487       .  S
C122        C123   1.401       .  A
C122        H126   1.084   1_455  S
C123        C124   1.403       .  A
C123        C441   1.483       .  S
C124        H127   1.084       .  S
C128        C129   1.407       .  A
C128        C133   1.409       .  A
C128        C421   1.487       .  S
C129        C130   1.401       .  A
C129        H134   1.083       .  S
C130        C131   1.398       .  A
C130        C748   1.478       .  S
C131        C132   1.407       .  A
C131        H135   1.083       .  S
C132        C133   1.409       .  A
C132        C401   1.498       .  S
C133        H136   1.082       .  S
C137        C138   1.409       .  A
C137        C142   1.407       .  A
C137        C708   1.487       .  S
C138        C139   1.407   1_565  A
C138        H143   1.083       .  S
C139        C140   1.401       .  A
C139        C501   1.484       .  S
C140        C141   1.400       .  A
C140        H144   1.084       .  S
C141        C142   1.401   1_545  A
C141        C388   1.479       .  S
C142        H145   1.084       .  S
C146        C147   1.408       .  A
C146        C151   1.407       .  A
C146        C408   1.495       .  S
C147        C148   1.404       .  A
C147        H152   1.083       .  S
C148        C149   1.403       .  A
C148        C448   1.481       .  S
C149        C150   1.402       .  A
C149        H153   1.084       .  S
C150        C151   1.403       .  A
C150        C381   1.481       .  S
C151        H154   1.083       .  S
Zn155       O159   1.949       .  S
Zn155       O160   1.992       .  S
Zn155       O164   2.028       .  S
Zn155       O171   2.031       .  S
Zn156       O159   1.960       .  S
Zn156       O161   2.051       .  S
Zn156       O163   2.052       .  S
Zn156       O167   2.019       .  S
Zn157       O159   1.935       .  S
Zn157       O162   2.013       .  S
Zn157       O165   1.996       .  S
Zn157       O168   1.992       .  S
Zn158       O159   1.956       .  S
Zn158       O166   2.032       .  S
Zn158       O169   2.037       .  S
Zn158       O170   2.025       .  S
O160        C172   1.272       .  A
O161        C173   1.277       .  A
O162        C174   1.273       .  A
O163        C172   1.279       .  A
O164        C174   1.275       .  A
O165        C173   1.271       .  A
O166        C175   1.276       .  A
O167        C176   1.275       .  A
O168        C175   1.272       .  A
O169        C176   1.277       .  A
O170        C177   1.276       .  A
O171        C177   1.276       .  A
C172        C921   1.490       .  S
C173        C468   1.495       .  S
C174        C368   1.491       .  S
C175        C821   1.487       .  S
C176        C341   1.494       .  S
C177        C428   1.491       .  S
C178        C179   1.409       .  A
C178        C183   1.405       .  A
C178        C348   1.483       .  S
C179        C180   1.410       .  A
C179        H184   1.082       .  S
C180        C181   1.402   1_545  A
C180        C328   1.488   1_545  S
C181        C182   1.399   1_565  A
C181        H185   1.085       .  S
C182        C183   1.401       .  A
C182        C308   1.479   1_545  S
C183        H186   1.083       .  S
C187        C188   1.402       .  A
C187        C192   1.401       .  A
C187        C281   1.475       .  S
C188        C189   1.404       .  A
C188        H193   1.083       .  S
C189        C190   1.404       .  A
C189        C728   1.480       .  S
C190        C191   1.406       .  A
C190        H194   1.082       .  S
C191        C192   1.403       .  A
C191        C268   1.492       .  S
C192        H195   1.082       .  S
C196        C197   1.408       .  A
C196        C201   1.410       .  A
C196        C688   1.491       .  S
C197        C198   1.401       .  A
C197        H202   1.084       .  S
C198        C199   1.399       .  A
C198        C248   1.476       .  S
C199        C200   1.402       .  A
C199        H203   1.082   1_556  S
C200        C201   1.405       .  A
C200        C361   1.482       .  S
C201        H204   1.087       .  S
C205        C206   1.402       .  A
C205        C210   1.403       .  A
C205        C241   1.482       .  S
C206        C207   1.400       .  A
C206        H211   1.084       .  S
C207        C208   1.399       .  A
C207        C301   1.470       .  S
C208        C209   1.406       .  A
C208        H212   1.083       .  S
C209        C210   1.407       .  A
C209        C261   1.487       .  S
C210        H213   1.083       .  S
Zn214       O218   1.952       .  S
Zn214       O219   2.010       .  S
Zn214       O223   2.047       .  S
Zn214       O230   2.045       .  S
Zn215       O218   1.948       .  S
Zn215       O220   2.031       .  S
Zn215       O222   2.026       .  S
Zn215       O226   2.011       .  S
Zn216       O218   1.934       .  S
Zn216       O221   2.016       .  S
Zn216       O224   2.011       .  S
Zn216       O227   2.009       .  S
Zn217       O218   1.951       .  S
Zn217       O225   2.026       .  S
Zn217       O228   2.036       .  S
Zn217       O229   2.000       .  S
O219        C231   1.274       .  A
O220        C232   1.276       .  A
O221        C233   1.274       .  A
O222        C231   1.276       .  A
O223        C233   1.277       .  A
O224        C232   1.274       .  A
O225        C234   1.276       .  A
O226        C235   1.273       .  A
O227        C234   1.274       .  A
O228        C235   1.276       .  A
O229        C236   1.272       .  A
O230        C236   1.278       .  A
C231        C541   1.487       .  S
C232        C288   1.490       .  S
C233        C801   1.497       .  S
C234        C621   1.485       .  S
C235        C881   1.494       .  S
C236        C321   1.493       .  S
C237        C238   1.405       .  A
C237        C242   1.399       .  A
C237        F255   1.358       .  S
C238        C239   1.404       .  A
C238        C243   1.478       .  S
C239        C240   1.397       .  A
C239        F244   1.358       .  S
C240        C241   1.408       .  A
C240        F256   1.358       .  S
C241        C242   1.408       .  A
C242        F245   1.358       .  S
C243        C246   1.405       .  A
C243        C250   1.405       .  A
C246        C247   1.399   1_554  A
C246        F251   1.358       .  S
C247        C248   1.405       .  A
C247        F253   1.358       .  S
C248        C249   1.405   1_556  A
C249        C250   1.398       .  A
C249        F252   1.358       .  S
C250        F254   1.358       .  S
C257        C258   1.408       .  A
C257        C262   1.400       .  A
C257        F275   1.358       .  S
C258        C259   1.406       .  A
C258        C263   1.486       .  S
C259        C260   1.393       .  A
C259        F264   1.358       .  S
C260        C261   1.409       .  A
C260        F276   1.358       .  S
C261        C262   1.409       .  A
C262        F265   1.358       .  S
C263        C266   1.406       .  A
C263        C270   1.407       .  A
C266        C267   1.399       .  A
C266        F271   1.358       .  S
C267        C268   1.413       .  A
C267        F273   1.358       .  S
C268        C269   1.410       .  A
C269        C270   1.393       .  A
C269        F272   1.358       .  S
C270        F274   1.358       .  S
C277        C278   1.402       .  A
C277        C282   1.394       .  A
C277        F295   1.358       .  S
C278        C279   1.405       .  A
C278        C283   1.474       .  S
C279        C280   1.402       .  A
C279        F284   1.357       .  S
C280        C281   1.405       .  A
C280        F296   1.358       .  S
C281        C282   1.406       .  A
C282        F285   1.358       .  S
C283        C286   1.401       .  A
C283        C290   1.401       .  A
C286        C287   1.398       .  A
C286        F291   1.358       .  S
C287        C288   1.414       .  A
C287        F293   1.358       .  S
C288        C289   1.413       .  A
C289        C290   1.400       .  A
C289        F292   1.357       .  S
C290        F294   1.358       .  S
C297        C298   1.406       .  A
C297        C302   1.396       .  A
C297        F315   1.358       .  S
C298        C299   1.405       .  A
C298        C303   1.476       .  S
C299        C300   1.400       .  A
C299        F304   1.358       .  S
C300        C301   1.404       .  A
C300        F316   1.358       .  S
C301        C302   1.402       .  A
C302        F305   1.358       .  S
C303        C306   1.404       .  A
C303        C310   1.405       .  A
C306        C307   1.395       .  A
C306        F311   1.358       .  S
C307        C308   1.406       .  A
C307        F313   1.358       .  S
C308        C309   1.407       .  A
C309        C310   1.401       .  A
C309        F312   1.358   1_565  S
C310        F314   1.358       .  S
C317        C318   1.405       .  A
C317        C322   1.402       .  A
C317        F335   1.358       .  S
C318        C319   1.401       .  A
C318        C323   1.482       .  S
C319        C320   1.398       .  A
C319        F324   1.358       .  S
C320        C321   1.416       .  A
C320        F336   1.358       .  S
C321        C322   1.411       .  A
C322        F325   1.357       .  S
C323        C326   1.406       .  A
C323        C330   1.403       .  A
C326        C327   1.401   1_465  A
C326        F331   1.358       .  S
C327        C328   1.408   1_545  A
C327        F333   1.358       .  S
C328        C329   1.411       .  A
C329        C330   1.399   1_655  A
C329        F332   1.358       .  S
C330        F334   1.358       .  S
C337        C338   1.405       .  A
C337        C342   1.403       .  A
C337        F355   1.358       .  S
C338        C339   1.403       .  A
C338        C343   1.484       .  S
C339        C340   1.398       .  A
C339        F344   1.358       .  S
C340        C341   1.414       .  A
C340        F356   1.358       .  S
C341        C342   1.413       .  A
C342        F345   1.358       .  S
C343        C346   1.405       .  A
C343        C350   1.407       .  A
C346        C347   1.400       .  A
C346        F351   1.358       .  S
C347        C348   1.407       .  A
C347        F353   1.358       .  S
C348        C349   1.406       .  A
C349        C350   1.402       .  A
C349        F352   1.358       .  S
C350        F354   1.358       .  S
C357        C358   1.405       .  A
C357        C362   1.398       .  A
C357        F375   1.358       .  S
C358        C359   1.407       .  A
C358        C363   1.483       .  S
C359        C360   1.402   1_554  A
C359        F364   1.358   1_554  S
C360        C361   1.406       .  A
C360        F376   1.358       .  S
C361        C362   1.406   1_556  A
C362        F365   1.358       .  S
C363        C366   1.404       .  A
C363        C370   1.404       .  A
C366        C367   1.400       .  A
C366        F371   1.358       .  S
C367        C368   1.413       .  A
C367        F373   1.358       .  S
C368        C369   1.413       .  A
C369        C370   1.400       .  A
C369        F372   1.358       .  S
C370        F374   1.358       .  S
C377        C378   1.402       .  A
C377        C382   1.395       .  A
C377        F395   1.358       .  S
C378        C379   1.403       .  A
C378        C383   1.473       .  S
C379        C380   1.402       .  A
C379        F384   1.357       .  S
C380        C381   1.408       .  A
C380        F396   1.357       .  S
C381        C382   1.408       .  A
C382        F385   1.358       .  S
C383        C386   1.404       .  A
C383        C390   1.402       .  A
C386        C387   1.401       .  A
C386        F391   1.358       .  S
C387        C388   1.407       .  A
C387        F393   1.358       .  S
C388        C389   1.406       .  A
C389        C390   1.396       .  A
C389        F392   1.358       .  S
C390        F394   1.358       .  S
C397        C398   1.408       .  A
C397        C402   1.404       .  A
C397        F415   1.358       .  S
C398        C399   1.406       .  A
C398        C403   1.491       .  S
C399        C400   1.394       .  A
C399        F404   1.358       .  S
C400        C401   1.411       .  A
C400        F416   1.358       .  S
C401        C402   1.414       .  A
C402        F405   1.357       .  S
C403        C406   1.408       .  A
C403        C410   1.407       .  A
C406        C407   1.402       .  A
C406        F411   1.357       .  S
C407        C408   1.411       .  A
C407        F413   1.358       .  S
C408        C409   1.411       .  A
C409        C410   1.396       .  A
C409        F412   1.358       .  S
C410        F414   1.358       .  S
C417        C418   1.404       .  A
C417        C422   1.402       .  A
C417        F435   1.358       .  S
C418        C419   1.404       .  A
C418        C423   1.481       .  S
C419        C420   1.399       .  A
C419        F424   1.358       .  S
C420        C421   1.408       .  A
C420        F436   1.358       .  S
C421        C422   1.409       .  A
C422        F425   1.358       .  S
C423        C426   1.404       .  A
C423        C430   1.402       .  A
C426        C427   1.404       .  A
C426        F431   1.358       .  S
C427        C428   1.413       .  A
C427        F433   1.358       .  S
C428        C429   1.411       .  A
C429        C430   1.398       .  A
C429        F432   1.358       .  S
C430        F434   1.358       .  S
C437        C438   1.404       .  A
C437        C442   1.401   1_655  A
C437        F455   1.358       .  S
C438        C439   1.404       .  A
C438        C443   1.478       .  S
C439        C440   1.399       .  A
C439        F444   1.358       .  S
C440        C441   1.408   1_655  A
C440        F456   1.358       .  S
C441        C442   1.407       .  A
C442        F445   1.358       .  S
C443        C446   1.404       .  A
C443        C450   1.404       .  A
C446        C447   1.399       .  A
C446        F451   1.358       .  S
C447        C448   1.406       .  A
C447        F453   1.358       .  S
C448        C449   1.407       .  A
C449        C450   1.401       .  A
C449        F452   1.358       .  S
C450        F454   1.358       .  S
C457        C458   1.403       .  A
C457        C462   1.398       .  A
C457        F475   1.358       .  S
C458        C459   1.406       .  A
C458        C463   1.482       .  S
C459        C460   1.403   1_655  A
C459        F464   1.358       .  S
C460        C461   1.408       .  A
C460        F476   1.358       .  S
C461        C462   1.409   1_455  A
C462        F465   1.358       .  S
C463        C466   1.404       .  A
C463        C470   1.401       .  A
C466        C467   1.403   1_556  A
C466        F471   1.358       .  S
C467        C468   1.412       .  A
C467        F473   1.357       .  S
C468        C469   1.416       .  A
C469        C470   1.399   1_554  A
C469        F472   1.358       .  S
C470        F474   1.358       .  S
C477        C478   1.406       .  A
C477        C482   1.402       .  A
C477        F495   1.358       .  S
C478        C479   1.404       .  A
C478        C483   1.482       .  S
C479        C480   1.400       .  A
C479        F484   1.358       .  S
C480        C481   1.408       .  A
C480        F496   1.358       .  S
C481        C482   1.408       .  A
C482        F485   1.358       .  S
C483        C486   1.402       .  A
C483        C490   1.404       .  A
C486        C487   1.399       .  A
C486        F491   1.358       .  S
C487        C488   1.413       .  A
C487        F493   1.358       .  S
C488        C489   1.412       .  A
C489        C490   1.402       .  A
C489        F492   1.358       .  S
C490        F494   1.358       .  S
C497        C498   1.405       .  A
C497        C502   1.400       .  A
C497        F515   1.358       .  S
C498        C499   1.403       .  A
C498        C503   1.479       .  S
C499        C500   1.398       .  A
C499        F504   1.358       .  S
C500        C501   1.410       .  A
C500        F516   1.358       .  S
C501        C502   1.407       .  A
C502        F505   1.358       .  S
C503        C506   1.403       .  A
C503        C510   1.402       .  A
C506        C507   1.399       .  A
C506        F511   1.358       .  S
C507        C508   1.413       .  A
C507        F513   1.358       .  S
C508        C509   1.413       .  A
C509        C510   1.398       .  A
C509        F512   1.358       .  S
C510        F514   1.358       .  S
C517        C518   1.403       .  A
C517        C522   1.402       .  A
C517        F535   1.358       .  S
C518        C519   1.402       .  A
C518        C523   1.476       .  S
C519        C520   1.397       .  A
C519        F524   1.358       .  S
C520        C521   1.410       .  A
C520        F536   1.358       .  S
C521        C522   1.410       .  A
C522        F525   1.358       .  S
C523        C526   1.402       .  A
C523        C530   1.404       .  A
C526        C527   1.397       .  A
C526        F531   1.358       .  S
C527        C528   1.409       .  A
C527        F533   1.358       .  S
C528        C529   1.409       .  A
C529        C530   1.402       .  A
C529        F532   1.358       .  S
C530        F534   1.357       .  S
C537        C538   1.407       .  A
C537        C542   1.400       .  A
C537        F555   1.358       .  S
C538        C539   1.404       .  A
C538        C543   1.485       .  S
C539        C540   1.397       .  A
C539        F544   1.358       .  S
C540        C541   1.412       .  A
C540        F556   1.358       .  S
C541        C542   1.410       .  A
C542        F545   1.358       .  S
C543        C546   1.405       .  A
C543        C550   1.407       .  A
C546        C547   1.398       .  A
C546        F551   1.358       .  S
C547        C548   1.408       .  A
C547        F553   1.358       .  S
C548        C549   1.407       .  A
C549        C550   1.400       .  A
C549        F552   1.358       .  S
C550        F554   1.358       .  S
C557        C558   1.408       .  A
C557        C562   1.397       .  A
C557        F575   1.358       .  S
C558        C559   1.408       .  A
C558        C563   1.494       .  S
C559        C560   1.404       .  A
C559        F564   1.358       .  S
C560        C561   1.413       .  A
C560        F576   1.357       .  S
C561        C562   1.412       .  A
C562        F565   1.358       .  S
C563        C566   1.407       .  A
C563        C570   1.409       .  A
C566        C567   1.398       .  A
C566        F571   1.358       .  S
C567        C568   1.411       .  A
C567        F573   1.357       .  S
C568        C569   1.412       .  A
C569        C570   1.402       .  A
C569        F572   1.358       .  S
C570        F574   1.358       .  S
C577        C578   1.405       .  A
C577        C582   1.402       .  A
C577        F595   1.358       .  S
C578        C579   1.405       .  A
C578        C583   1.481       .  S
C579        C580   1.400       .  A
C579        F584   1.358       .  S
C580        C581   1.406       .  A
C580        F596   1.358       .  S
C581        C582   1.407       .  A
C582        F585   1.358       .  S
C583        C586   1.404       .  A
C583        C590   1.400       .  A
C586        C587   1.405       .  A
C586        F591   1.358       .  S
C587        C588   1.414       .  A
C587        F593   1.357       .  S
C588        C589   1.414       .  A
C589        C590   1.396       .  A
C589        F592   1.358       .  S
C590        F594   1.358       .  S
C597        C598   1.404       .  A
C597        C602   1.400       .  A
C597        F615   1.358       .  S
C598        C599   1.406       .  A
C598        C603   1.481       .  S
C599        C600   1.400       .  A
C599        F604   1.358       .  S
C600        C601   1.408       .  A
C600        F616   1.358       .  S
C601        C602   1.408       .  A
C602        F605   1.358       .  S
C603        C606   1.404       .  A
C603        C610   1.405       .  A
C606        C607   1.399       .  A
C606        F611   1.358       .  S
C607        C608   1.410       .  A
C607        F613   1.358       .  S
C608        C609   1.409       .  A
C609        C610   1.401       .  A
C609        F612   1.358       .  S
C610        F614   1.358       .  S
C617        C618   1.402       .  A
C617        C622   1.398       .  A
C617        F635   1.358       .  S
C618        C619   1.402       .  A
C618        C623   1.476       .  S
C619        C620   1.401       .  A
C619        F624   1.358       .  S
C620        C621   1.412       .  A
C620        F636   1.358       .  S
C621        C622   1.410       .  A
C622        F625   1.358       .  S
C623        C626   1.404       .  A
C623        C630   1.403       .  A
C626        C627   1.401       .  A
C626        F631   1.358       .  S
C627        C628   1.407       .  A
C627        F633   1.358       .  S
C628        C629   1.408       .  A
C629        C630   1.399       .  A
C629        F632   1.358       .  S
C630        F634   1.358       .  S
C637        C638   1.406   1_565  A
C637        C642   1.398       .  A
C637        F655   1.358       .  S
C638        C639   1.407   1_545  A
C638        C643   1.488       .  S
C639        C640   1.401       .  A
C639        F644   1.358   1_565  S
C640        C641   1.410       .  A
C640        F656   1.358       .  S
C641        C642   1.409       .  A
C642        F645   1.358       .  S
C643        C646   1.406       .  A
C643        C650   1.408       .  A
C646        C647   1.400       .  A
C646        F651   1.358       .  S
C647        C648   1.408       .  A
C647        F653   1.358       .  S
C648        C649   1.407       .  A
C649        C650   1.402       .  A
C649        F652   1.358       .  S
C650        F654   1.358       .  S
C657        C658   1.408       .  A
C657        C662   1.400       .  A
C657        F675   1.358       .  S
C658        C659   1.408       .  A
C658        C663   1.486       .  S
C659        C660   1.399       .  A
C659        F664   1.358       .  S
C660        C661   1.404       .  A
C660        F676   1.358       .  S
C661        C662   1.404       .  A
C662        F665   1.358       .  S
C663        C666   1.405       .  A
C663        C670   1.406       .  A
C666        C667   1.398       .  A
C666        F671   1.358       .  S
C667        C668   1.410       .  A
C667        F673   1.358       .  S
C668        C669   1.412       .  A
C669        C670   1.401       .  A
C669        F672   1.358       .  S
C670        F674   1.358       .  S
C677        C678   1.409       .  A
C677        C682   1.402       .  A
C677        F695   1.357       .  S
C678        C679   1.407       .  A
C678        C683   1.487       .  S
C679        C680   1.398       .  A
C679        F684   1.358       .  S
C680        C681   1.404       .  A
C680        F696   1.358       .  S
C681        C682   1.403       .  A
C682        F685   1.357       .  S
C683        C686   1.406       .  A
C683        C690   1.406       .  A
C686        C687   1.400       .  A
C686        F691   1.358       .  S
C687        C688   1.411       .  A
C687        F693   1.358       .  S
C688        C689   1.409       .  A
C689        C690   1.399       .  A
C689        F692   1.358       .  S
C690        F694   1.358       .  S
C697        C698   1.401       .  A
C697        C702   1.399       .  A
C697        F715   1.358       .  S
C698        C699   1.402       .  A
C698        C703   1.479       .  S
C699        C700   1.403       .  A
C699        F704   1.358       .  S
C700        C701   1.414       .  A
C700        F716   1.357       .  S
C701        C702   1.415       .  A
C702        F705   1.358       .  S
C703        C706   1.404       .  A
C703        C710   1.403       .  A
C706        C707   1.399       .  A
C706        F711   1.358       .  S
C707        C708   1.409       .  A
C707        F713   1.358       .  S
C708        C709   1.410       .  A
C709        C710   1.402       .  A
C709        F712   1.358       .  S
C710        F714   1.357       .  S
C717        C718   1.400       .  A
C717        C722   1.397       .  A
C717        F735   1.358       .  S
C718        C719   1.400       .  A
C718        C723   1.471       .  S
C719        C720   1.398       .  A
C719        F724   1.358       .  S
C720        C721   1.414       .  A
C720        F736   1.358       .  S
C721        C722   1.413       .  A
C722        F725   1.358       .  S
C723        C726   1.402       .  A
C723        C730   1.402       .  A
C726        C727   1.399       .  A
C726        F731   1.358       .  S
C727        C728   1.408       .  A
C727        F733   1.358       .  S
C728        C729   1.408       .  A
C729        C730   1.397       .  A
C729        F732   1.358       .  S
C730        F734   1.358       .  S
C737        C738   1.402       .  A
C737        C742   1.399       .  A
C737        F755   1.358       .  S
C738        C739   1.406       .  A
C738        C743   1.486       .  S
C739        C740   1.404       .  A
C739        F744   1.358       .  S
C740        C741   1.412       .  A
C740        F756   1.357       .  S
C741        C742   1.416       .  A
C742        F745   1.358       .  S
C743        C746   1.409       .  A
C743        C750   1.406       .  A
C746        C747   1.402       .  A
C746        F751   1.358       .  S
C747        C748   1.403       .  A
C747        F753   1.358       .  S
C748        C749   1.405       .  A
C749        C750   1.400       .  A
C749        F752   1.358       .  S
C750        F754   1.358       .  S
C757        C758   1.406       .  A
C757        C762   1.400       .  A
C757        F775   1.358       .  S
C758        C759   1.403       .  A
C758        C763   1.485       .  S
C759        C760   1.399       .  A
C759        F764   1.358       .  S
C760        C761   1.415       .  A
C760        F776   1.358       .  S
C761        C762   1.410       .  A
C762        F765   1.358       .  S
C763        C766   1.405       .  A
C763        C770   1.408       .  A
C766        C767   1.396       .  A
C766        F771   1.358       .  S
C767        C768   1.407       .  A
C767        F773   1.358       .  S
C768        C769   1.407       .  A
C769        C770   1.403       .  A
C769        F772   1.358       .  S
C770        F774   1.358       .  S
C777        C778   1.409       .  A
C777        C782   1.401       .  A
C777        F795   1.358       .  S
C778        C779   1.408       .  A
C778        C783   1.488       .  S
C779        C780   1.400       .  A
C779        F784   1.358       .  S
C780        C781   1.405       .  A
C780        F796   1.358       .  S
C781        C782   1.404       .  A
C782        F785   1.358       .  S
C783        C786   1.407       .  A
C783        C790   1.409       .  A
C786        C787   1.400       .  A
C786        F791   1.358       .  S
C787        C788   1.406       .  A
C787        F793   1.358       .  S
C788        C789   1.406       .  A
C789        C790   1.400       .  A
C789        F792   1.358       .  S
C790        F794   1.358       .  S
C797        C798   1.405       .  A
C797        C802   1.400       .  A
C797        F815   1.358       .  S
C798        C799   1.407       .  A
C798        C803   1.492       .  S
C799        C800   1.404       .  A
C799        F804   1.358       .  S
C800        C801   1.413       .  A
C800        F816   1.358       .  S
C801        C802   1.413       .  A
C802        F805   1.358       .  S
C803        C806   1.409       .  A
C803        C810   1.410       .  A
C806        C807   1.401       .  A
C806        F811   1.357       .  S
C807        C808   1.403       .  A
C807        F813   1.358       .  S
C808        C809   1.404       .  A
C809        C810   1.403       .  A
C809        F812   1.358       .  S
C810        F814   1.358       .  S
C817        C818   1.400       .  A
C817        C822   1.395   1_455  A
C817        F835   1.358       .  S
C818        C819   1.403   1_455  A
C818        C823   1.475       .  S
C819        C820   1.400       .  A
C819        F824   1.358   1_655  S
C820        C821   1.412       .  A
C820        F836   1.358       .  S
C821        C822   1.413       .  A
C822        F825   1.358       .  S
C823        C826   1.404       .  A
C823        C830   1.402       .  A
C826        C827   1.400       .  A
C826        F831   1.358       .  S
C827        C828   1.407       .  A
C827        F833   1.358       .  S
C828        C829   1.409       .  A
C829        C830   1.397       .  A
C829        F832   1.358       .  S
C830        F834   1.358       .  S
C837        C838   1.404       .  A
C837        C842   1.402       .  A
C837        F855   1.358       .  S
C838        C839   1.402       .  A
C838        C843   1.476       .  S
C839        C840   1.394       .  A
C839        F844   1.358       .  S
C840        C841   1.409       .  A
C840        F856   1.358       .  S
C841        C842   1.409       .  A
C842        F845   1.358       .  S
C843        C846   1.402       .  A
C843        C850   1.402       .  A
C846        C847   1.396       .  A
C846        F851   1.358       .  S
C847        C848   1.411       .  A
C847        F853   1.358       .  S
C848        C849   1.414       .  A
C849        C850   1.401       .  A
C849        F852   1.357       .  S
C850        F854   1.358       .  S
C857        C858   1.403       .  A
C857        C862   1.403       .  A
C857        F875   1.358       .  S
C858        C859   1.401       .  A
C858        C863   1.478       .  S
C859        C860   1.398       .  A
C859        F864   1.358       .  S
C860        C861   1.414       .  A
C860        F876   1.358       .  S
C861        C862   1.412       .  A
C862        F865   1.357       .  S
C863        C866   1.403       .  A
C863        C870   1.404       .  A
C866        C867   1.399       .  A
C866        F871   1.358       .  S
C867        C868   1.410       .  A
C867        F873   1.358       .  S
C868        C869   1.409       .  A
C869        C870   1.401       .  A
C869        F872   1.358       .  S
C870        F874   1.358       .  S
C877        C878   1.403       .  A
C877        C882   1.399       .  A
C877        F895   1.358       .  S
C878        C879   1.405       .  A
C878        C883   1.484   1_565  S
C879        C880   1.401       .  A
C879        F884   1.358   1_565  S
C880        C881   1.412       .  A
C880        F896   1.357       .  S
C881        C882   1.415       .  A
C882        F885   1.358       .  S
C883        C886   1.408       .  A
C883        C890   1.406       .  A
C886        C887   1.401       .  A
C886        F891   1.358   1_545  S
C887        C888   1.404       .  A
C887        F893   1.358       .  S
C888        C889   1.405       .  A
C889        C890   1.399       .  A
C889        F892   1.358       .  S
C890        F894   1.358       .  S
C897        C898   1.407       .  A
C897        C902   1.394       .  A
C897        F915   1.358       .  S
C898        C899   1.408       .  A
C898        C903   1.490       .  S
C899        C900   1.401       .  A
C899        F904   1.358       .  S
C900        C901   1.412       .  A
C900        F916   1.357       .  S
C901        C902   1.412       .  A
C902        F905   1.358       .  S
C903        C906   1.407       .  A
C903        C910   1.408       .  A
C906        C907   1.397       .  A
C906        F911   1.358       .  S
C907        C908   1.411       .  A
C907        F913   1.358       .  S
C908        C909   1.409       .  A
C909        C910   1.399       .  A
C909        F912   1.358       .  S
C910        F914   1.357       .  S
C917        C918   1.403       .  A
C917        C922   1.397       .  A
C917        F935   1.358       .  S
C918        C919   1.407       .  A
C918        C923   1.485       .  S
C919        C920   1.403       .  A
C919        F924   1.357       .  S
C920        C921   1.410       .  A
C920        F936   1.357       .  S
C921        C922   1.414       .  A
C922        F925   1.358       .  S
C923        C926   1.408       .  A
C923        C930   1.407       .  A
C926        C927   1.400       .  A
C926        F931   1.358       .  S
C927        C928   1.405       .  A
C927        F933   1.358       .  S
C928        C929   1.404       .  A
C929        C930   1.399       .  A
C929        F932   1.358       .  S
C930        F934   1.358       .  S
C937        C938   1.403       .  A
C937        C942   1.398       .  A
C937        F955   1.358       .  S
C938        C939   1.403       .  A
C938        C943   1.480       .  S
C939        C940   1.399       .  A
C939        F944   1.358       .  S
C940        C941   1.413       .  A
C940        F956   1.358       .  S
C941        C942   1.413       .  A
C942        F945   1.358       .  S
C943        C946   1.407       .  A
C943        C950   1.403   1_556  A
C946        C947   1.401       .  A
C946        F951   1.358       .  S
C947        C948   1.405   1_556  A
C947        F953   1.357       .  S
C948        C949   1.408       .  A
C949        C950   1.396       .  A
C949        F952   1.358       .  S
C950        F954   1.358       .  S
