geometry optimzed in LAMMPS
_audit_creation_date              2020-11-30 
_audit_creation_method            'lammps2cif' 
_symmetry_space_group_name_H-M    'P1' 
_symmetry_Int_Tables_number       1 
_symmetry_cell_setting            triclinic 
loop_ 
_symmetry_equiv_pos_as_xyz 
  x,y,z 
_cell_length_a                    77.29965985 
_cell_length_b                    76.87317913757452 
_cell_length_c                    77.17201001797342 
_cell_angle_alpha                 90.3080786750511 
_cell_angle_beta                  89.9947946391564 
_cell_angle_gamma                 89.60395666752903 
loop_ 
_atom_site_label 
_atom_site_type_symbol 
_atom_site_fract_x 
_atom_site_fract_y 
_atom_site_fract_z 
_atom_site_charge 
C1          C  0.23923063  0.25054381  0.23533820    -0.02400
C2          C  0.74129743  0.25525849  0.24926163    -0.02400
C3          C  0.24932028  0.75200837  0.24802365    -0.02400
C4          C  0.25318009  0.24851779  0.74051691    -0.02400
C5          C  0.75821607  0.75682848  0.25278360    -0.02400
C6          C  0.75465181  0.24999413  0.75346042    -0.02400
C7          C  0.26794055  0.74904954  0.75367067    -0.02400
C8          C  0.76308976  0.74975901  0.75639979    -0.02400
N9          N  0.41258855  0.22914214  0.21237114    -0.27200
N10         N  0.40349125  0.24316312  0.20837675    -0.35100
C11         C  0.38886704  0.23845769  0.20035352     0.01100
C12         C  0.38843521  0.22056599  0.19920909     0.07100
C13         C  0.40366786  0.21498821  0.20710767    -0.06000
H14         H  0.37816388  0.24723756  0.19784237     0.07800
H15         H  0.40713218  0.20172469  0.21028035     0.09000
Cu16       Cu  0.40662708  0.26677026  0.22055556     0.44200
Cu17       Cu  0.43508757  0.23125769  0.22748925     0.42000
Cu18       Cu  0.43323206  0.26833320  0.25789270     0.43900
N19         N  0.40018428  0.28105815  0.24225996    -0.34600
N20         N  0.40924758  0.28093638  0.25674468    -0.28900
C21         C  0.39944427  0.28786516  0.26955108    -0.05000
C22         C  0.38329864  0.29227988  0.26274406     0.07200
C23         C  0.38448696  0.28787713  0.24537043     0.01000
H24         H  0.40353202  0.28877921  0.28291111     0.08700
H25         H  0.37406142  0.28790837  0.23601559     0.07800
N26         N  0.45569728  0.25402050  0.25244912    -0.36100
N27         N  0.45641780  0.24063165  0.24157335    -0.28300
C28         C  0.47300011  0.23515943  0.24035193    -0.03500
C29         C  0.48320538  0.24557562  0.25089206     0.05100
C30         C  0.47175655  0.25735174  0.25836221     0.03200
H31         H  0.47736989  0.22462102  0.23206232     0.08300
H32         H  0.47491038  0.26784994  0.26717614     0.07200
N33         N  0.57520537  0.26150623  0.28749141    -0.27200
N34         N  0.58422248  0.24755921  0.29192728    -0.35100
C35         C  0.59998823  0.25233040  0.29728650     0.01100
C36         C  0.60132996  0.27019077  0.29609229     0.07100
C37         C  0.58523729  0.27564608  0.28994066    -0.06000
H38         H  0.61039407  0.24323350  0.29989970     0.07800
H39         H  0.58172839  0.28864051  0.28586619     0.09000
Cu40       Cu  0.57924949  0.22295618  0.28280918     0.44200
Cu41       Cu  0.55115254  0.25932641  0.27497512     0.42000
Cu42       Cu  0.55249718  0.22280870  0.24553487     0.43900
N43         N  0.58687712  0.21178911  0.25975093    -0.34600
N44         N  0.57762067  0.21280740  0.24540890    -0.28900
C45         C  0.58809896  0.20975769  0.23174463    -0.05000
C46         C  0.60481310  0.20709537  0.23783242     0.07200
C47         C  0.60340573  0.20818527  0.25567155     0.01000
H48         H  0.58421940  0.21112331  0.21834911     0.08700
H49         H  0.61387369  0.20804091  0.26496605     0.07800
N50         N  0.52974802  0.23635958  0.25133909    -0.36100
N51         N  0.52915514  0.24986695  0.26204103    -0.28300
C52         C  0.51257031  0.25531171  0.26345157    -0.03500
C53         C  0.50225223  0.24471557  0.25317735     0.05100
C54         C  0.51363525  0.23287812  0.24569750     0.03200
H55         H  0.50830135  0.26603461  0.27155622     0.08300
H56         H  0.51042619  0.22233836  0.23695374     0.07200
N57         N  0.19674628  0.41625166  0.23781620    -0.27200
N58         N  0.19370799  0.40687331  0.25178468    -0.35100
C59         C  0.18790195  0.39112072  0.24697856     0.01100
C60         C  0.18746911  0.39030506  0.22910759     0.07100
C61         C  0.19303644  0.40655788  0.22370487    -0.06000
H62         H  0.18645600  0.38027127  0.25572360     0.07800
H63         H  0.19570926  0.41045250  0.21052820     0.09000
Cu64       Cu  0.20483444  0.41210435  0.27552989     0.44200
Cu65       Cu  0.20960446  0.44010859  0.23894746     0.42000
Cu66       Cu  0.24245924  0.43886421  0.27173349     0.43900
N67         N  0.22816897  0.40625234  0.28710962    -0.34600
N68         N  0.24253854  0.41485976  0.28397364    -0.28900
C69         C  0.25617089  0.40434679  0.28714853    -0.05000
C70         C  0.25008681  0.38828821  0.29261834     0.07200
C71         C  0.23223327  0.39024399  0.29264832     0.01000
H72         H  0.26932201  0.40756287  0.28374603     0.08700
H73         H  0.22275336  0.38014727  0.29448798     0.07800
N74         N  0.23635243  0.46129688  0.25806032    -0.36100
N75         N  0.22431612  0.46181846  0.24588651    -0.28300
C76         C  0.22298239  0.47824175  0.23997312    -0.03500
C77         C  0.23466957  0.48854198  0.24892720     0.05100
C78         C  0.24292320  0.47733394  0.26027197     0.03200
H79         H  0.21391477  0.48244168  0.23014679     0.08300
H80         H  0.25280332  0.48062060  0.26963801     0.07200
N81         N  0.27565377  0.57879096  0.26060226    -0.27200
N82         N  0.28022850  0.58680248  0.24623086    -0.35100
C83         C  0.28846315  0.60156614  0.25023564     0.01100
C84         C  0.28902891  0.60318913  0.26800946     0.07100
C85         C  0.28065665  0.58858010  0.27428463    -0.06000
H86         H  0.29197543  0.61140289  0.24091871     0.07800
H87         H  0.27760896  0.58579621  0.28766229     0.09000
Cu88       Cu  0.26888457  0.58201923  0.22266976     0.44200
Cu89       Cu  0.26092970  0.55608519  0.25948002     0.42000
Cu90       Cu  0.23084085  0.55658614  0.22271118     0.43900
N91         N  0.24698931  0.58894512  0.20920799    -0.34600
N92         N  0.23234520  0.58027478  0.20978127    -0.28900
C93         C  0.21961582  0.59042045  0.20329058    -0.05000
C94         C  0.22660118  0.60647286  0.19878070     0.07200
C95         C  0.24403411  0.60478273  0.20265679     0.01000
H96         H  0.20623516  0.58654925  0.20272481     0.08700
H97         H  0.25362244  0.61496289  0.20247235     0.07800
N98         N  0.23607292  0.53465336  0.23770126    -0.36100
N99         N  0.24701947  0.53439097  0.25090823    -0.28300
C100        C  0.24814496  0.51800347  0.25696057    -0.03500
C101        C  0.23737065  0.50748015  0.24716745     0.05100
C102        C  0.22991757  0.51849606  0.23511793     0.03200
H103        H  0.25638838  0.51400961  0.26756698     0.08300
H104        H  0.22093810  0.51497278  0.22495888     0.07200
N105        N  0.21390739  0.23881706  0.41493573    -0.27200
N106        N  0.20914219  0.25324827  0.40698834    -0.35100
C107        C  0.20115335  0.24921471  0.39209227     0.01100
C108        C  0.20099058  0.23136470  0.39028454     0.07100
C109        C  0.20932737  0.22510191  0.40497001    -0.06000
H110        H  0.19795526  0.25856498  0.38214026     0.07800
H111        H  0.21293557  0.21173962  0.40753298     0.09000
Cu112      Cu  0.22103299  0.27667055  0.41143652     0.44200
Cu113      Cu  0.22885420  0.23995676  0.43750521     0.42000
Cu114      Cu  0.26046303  0.27445877  0.43497027     0.43900
N115        N  0.24375226  0.28691345  0.40225462    -0.34600
N116        N  0.25889714  0.28499989  0.40996726    -0.28900
C117        C  0.27147614  0.28824638  0.39825717    -0.05000
C118        C  0.26372577  0.29217079  0.38243052     0.07200
C119        C  0.24618331  0.29123917  0.38562905     0.01000
H120        H  0.28514381  0.28627881  0.40061256     0.08700
H121        H  0.23592633  0.29191699  0.37611150     0.07800
N122        N  0.25380502  0.26214233  0.45826253    -0.36100
N123        N  0.24234585  0.24944277  0.45906763    -0.28300
C124        C  0.23984876  0.24518667  0.47580326    -0.03500
C125        C  0.25015076  0.25569472  0.48611684     0.05100
C126        C  0.25886166  0.26625251  0.47451883     0.03200
H127        H  0.23072719  0.23554559  0.48017692     0.08300
H128        H  0.26780976  0.27654610  0.47769685     0.07200
N129        N  0.28446664  0.27437762  0.57775497    -0.27200
N130        N  0.28846703  0.25988611  0.58598443    -0.35100
C131        C  0.29553945  0.26371565  0.60134256     0.01100
C132        C  0.29594043  0.28151904  0.60322796     0.07100
C133        C  0.28884827  0.28801992  0.58797616    -0.06000
H134        H  0.29789376  0.25427178  0.61143795     0.07800
H135        H  0.28559807  0.30144719  0.58529071     0.09000
Cu136      Cu  0.27647131  0.23674668  0.58119062     0.44200
Cu137      Cu  0.27036826  0.27293191  0.55454582     0.42000
Cu138      Cu  0.23873683  0.23728370  0.55584735     0.43900
N139        N  0.25386720  0.22557667  0.58926116    -0.34600
N140        N  0.23918897  0.22632265  0.58058992    -0.28900
C141        C  0.22636451  0.22058635  0.59096789    -0.05000
C142        C  0.23344201  0.21634571  0.60706170     0.07200
C143        C  0.25090535  0.21974039  0.60528459     0.01000
H144        H  0.21295502  0.21982010  0.58710677     0.08700
H145        H  0.26070223  0.21905487  0.61527178     0.07800
N146        N  0.24651176  0.24981089  0.53310650    -0.36100
N147        N  0.25782165  0.26268572  0.53259755    -0.28300
C148        C  0.26073103  0.26685480  0.51588055    -0.03500
C149        C  0.25084423  0.25613228  0.50535121     0.05100
C150        C  0.24199168  0.24553617  0.51676181     0.03200
H151        H  0.26970917  0.27670825  0.51168354     0.08300
H152        H  0.23318110  0.23517347  0.51341984     0.07200
N153        N  0.42076975  0.73551517  0.27828601    -0.27200
N154        N  0.41269250  0.75039725  0.28144186    -0.35100
C155        C  0.39647444  0.74726624  0.28663369     0.01100
C156        C  0.39386711  0.72951689  0.28674293     0.07100
C157        C  0.40966632  0.72239279  0.28146885    -0.06000
H158        H  0.38673282  0.75728952  0.28841259     0.07800
H159        H  0.41233907  0.70885495  0.27857532     0.09000
Cu160      Cu  0.42018826  0.77389220  0.27149696     0.44200
Cu161      Cu  0.44533085  0.73512531  0.26659756     0.42000
Cu162      Cu  0.44717952  0.77009296  0.23504774     0.43900
N163        N  0.41489260  0.78627957  0.24856022    -0.34600
N164        N  0.42411904  0.78378314  0.23435787    -0.28900
C165        C  0.41440524  0.78797620  0.22048508    -0.05000
C166        C  0.39830165  0.79327617  0.22637851     0.07200
C167        C  0.39910964  0.79206127  0.24418480     0.01000
H168        H  0.41801517  0.78529333  0.20718765     0.08700
H169        H  0.38826561  0.79280058  0.25303702     0.07800
N170        N  0.46843249  0.75540080  0.24236972    -0.36100
N171        N  0.46812385  0.74274021  0.25392610    -0.28300
C172        C  0.48447247  0.73691860  0.25633376    -0.03500
C173        C  0.49544223  0.74638998  0.24576488     0.05100
C174        C  0.48477889  0.75792158  0.23712387     0.03200
H175        H  0.48812935  0.72677028  0.26530046     0.08300
H176        H  0.48863571  0.76777164  0.22796835     0.07200
N177        N  0.58629618  0.75902809  0.20825221    -0.27200
N178        N  0.59626140  0.74518328  0.20605193    -0.35100
C179        C  0.61205409  0.75025298  0.20112990     0.01100
C180        C  0.61228631  0.76822492  0.20027598     0.07100
C181        C  0.59554506  0.77336048  0.20462058    -0.06000
H182        H  0.62314378  0.74161222  0.20038194     0.07800
H183        H  0.59072237  0.78649829  0.20622390     0.09000
Cu184      Cu  0.59132954  0.72137551  0.21696261     0.44200
Cu185      Cu  0.56238342  0.75730528  0.22034645     0.42000
Cu186      Cu  0.56514275  0.72552550  0.25476233     0.43900
N187        N  0.59856604  0.71147659  0.24056124    -0.34600
N188        N  0.59001284  0.71468504  0.25505939    -0.28900
C189        C  0.60092277  0.71248478  0.26853007    -0.05000
C190        C  0.61715887  0.70798883  0.26207851     0.07200
C191        C  0.61495062  0.70708016  0.24432704     0.01000
H192        H  0.59775081  0.71557406  0.28185540     0.08700
H193        H  0.62489608  0.70509429  0.23465742     0.07800
N194        N  0.54202575  0.73762691  0.24730985    -0.36100
N195        N  0.54120344  0.74929143  0.23477696    -0.28300
C196        C  0.52463797  0.75419157  0.23252465    -0.03500
C197        C  0.51445013  0.74516426  0.24410917     0.05100
C198        C  0.52589874  0.73477275  0.25330568     0.03200
H199        H  0.52031298  0.76342709  0.22289711     0.08300
H200        H  0.52273553  0.72566367  0.26344127     0.07200
N201        N  0.42685189  0.27026916  0.73048948    -0.27200
N202        N  0.41885315  0.27353153  0.74529668    -0.35100
C203        C  0.40442460  0.28280538  0.74216459     0.01100
C204        C  0.40310701  0.28541039  0.72452160     0.07100
C205        C  0.41750985  0.27719125  0.71746265    -0.06000
H206        H  0.39447588  0.28544091  0.75170864     0.07800
H207        H  0.42026577  0.27524470  0.70384285     0.09000
Cu208      Cu  0.42333367  0.25932352  0.76747436     0.44200
Cu209      Cu  0.44857539  0.25421954  0.72920099     0.42000
Cu210      Cu  0.44869115  0.22074203  0.76206746     0.43900
N211        N  0.41705567  0.23593447  0.77874758    -0.34600
N212        N  0.42521632  0.22113807  0.77537860    -0.28900
C213        C  0.41457275  0.20782277  0.77915037    -0.05000
C214        C  0.39906006  0.21469349  0.78522988     0.07200
C215        C  0.40123033  0.23249638  0.78486735     0.01000
H216        H  0.41714289  0.19436698  0.77580654     0.08700
H217        H  0.39111191  0.24218797  0.78637956     0.07800
N218        N  0.47060827  0.22774086  0.74800848    -0.36100
N219        N  0.47036089  0.23959863  0.73564069    -0.28300
C220        C  0.48665848  0.24247253  0.73030120    -0.03500
C221        C  0.49776688  0.23213305  0.73989935     0.05100
C222        C  0.48713690  0.22292420  0.75097460     0.03200
H223        H  0.49025054  0.25237674  0.72109361     0.08300
H224        H  0.49117961  0.21412348  0.76111325     0.07200
N225        N  0.58812609  0.23916950  0.77915490    -0.27200
N226        N  0.59503510  0.25480611  0.77821989    -0.35100
C227        C  0.61107683  0.25432435  0.78486432     0.01100
C228        C  0.61464394  0.23751728  0.79008743     0.07100
C229        C  0.59966003  0.22829804  0.78655843    -0.06000
H230        H  0.62003505  0.26505218  0.78434212     0.07800
H231        H  0.59795908  0.21438846  0.78765323     0.09000
Cu232      Cu  0.58629989  0.27386826  0.76171767     0.44200
Cu233      Cu  0.56523787  0.23299906  0.76637934     0.42000
Cu234      Cu  0.56473120  0.25565551  0.72537706     0.43900
N235        N  0.59166271  0.28093690  0.73664087    -0.34600
N236        N  0.58561440  0.27253500  0.72297334    -0.28900
C237        C  0.59590168  0.27591101  0.70925315    -0.05000
C238        C  0.60873533  0.28727164  0.71465640     0.07200
C239        C  0.60558643  0.29009227  0.73203629     0.01000
H240        H  0.59470052  0.26986333  0.69662559     0.08700
H241        H  0.61404831  0.29663408  0.74110444     0.07800
N242        N  0.54358150  0.24207054  0.73515449    -0.36100
N243        N  0.54380463  0.23360105  0.75004155    -0.28300
C244        C  0.52774858  0.22785242  0.75349022    -0.03500
C245        C  0.51683870  0.23313767  0.74026467     0.05100
C246        C  0.52733374  0.24208598  0.72886796     0.03200
H247        H  0.52406401  0.22140549  0.76534493     0.08300
H248        H  0.52328576  0.24893972  0.71733610     0.07200
N249        N  0.23631831  0.77100223  0.41127707    -0.27200
N250        N  0.24786137  0.77566145  0.39958221    -0.35100
C251        C  0.23964606  0.78158887  0.38549492     0.01100
C252        C  0.22210032  0.78061100  0.38839863     0.07100
C253        C  0.22030878  0.77383637  0.40486685    -0.06000
H254        H  0.24597402  0.78549422  0.37364190     0.07800
H255        H  0.20837604  0.77086631  0.41151234     0.09000
Cu256      Cu  0.27388340  0.76984280  0.40106815     0.44200
Cu257      Cu  0.24382235  0.76025279  0.43469612     0.42000
Cu258      Cu  0.28471912  0.73680079  0.43145047     0.43900
N259        N  0.29247957  0.75113846  0.39632904    -0.34600
N260        N  0.29507012  0.73773636  0.40667346    -0.28900
C261        C  0.30245945  0.72474003  0.39748728    -0.05000
C262        C  0.30485313  0.73040696  0.38065747     0.07200
C263        C  0.29842818  0.74719081  0.38045135     0.01000
H264        H  0.30418225  0.71160183  0.40216878     0.08700
H265        H  0.29568622  0.75481171  0.36901188     0.07800
N266        N  0.27245303  0.74250786  0.45474521    -0.36100
N267        N  0.25778765  0.75142068  0.45589323    -0.28300
C268        C  0.25435637  0.75470021  0.47267896    -0.03500
C269        C  0.26740200  0.74740168  0.48255935     0.05100
C270        C  0.27860434  0.73967643  0.47080368     0.03200
H271        H  0.24334556  0.76214648  0.47730107     0.08300
H272        H  0.29071167  0.73314994  0.47364934     0.07200
N273        N  0.28324808  0.71540189  0.57361796    -0.27200
N274        N  0.26838662  0.71317818  0.58174174    -0.35100
C275        C  0.27151808  0.70767837  0.59787618     0.01100
C276        C  0.28918059  0.70670862  0.60026194     0.07100
C277        C  0.29629700  0.71149116  0.58453824    -0.06000
H278        H  0.26182412  0.70731006  0.60798598     0.07800
H279        H  0.30978135  0.71417179  0.58200680     0.09000
Cu280      Cu  0.24613639  0.72662146  0.57567611     0.44200
Cu281      Cu  0.28441058  0.72833224  0.55017595     0.42000
Cu282      Cu  0.25444807  0.76468693  0.55203458     0.43900
N283        N  0.23747380  0.75078661  0.58356942    -0.34600
N284        N  0.24219015  0.76538431  0.57601528    -0.28900
C285        C  0.23871691  0.77883782  0.58682117    -0.05000
C286        C  0.23131950  0.77218999  0.60173451     0.07200
C287        C  0.23074925  0.75444284  0.59919184     0.01000
H288        H  0.24183093  0.79227946  0.58426741     0.08700
H289        H  0.22705709  0.74478259  0.60861856     0.07800
N290        N  0.26500870  0.75491930  0.52911782    -0.36100
N291        N  0.27632166  0.74193086  0.52849315    -0.28300
C292        C  0.27938076  0.73769305  0.51183168    -0.03500
C293        C  0.26931931  0.74834211  0.50149624     0.05100
C294        C  0.26039089  0.75911085  0.51285225     0.03200
H295        H  0.28750837  0.72696374  0.50761879     0.08300
H296        H  0.25078121  0.76884996  0.50958231     0.07200
N297        N  0.22768119  0.42517198  0.76831358    -0.27200
N298        N  0.24143264  0.41612810  0.77305310    -0.35100
C299        C  0.23637738  0.40156867  0.78096177     0.01100
C300        C  0.21853316  0.40098208  0.78086548     0.07100
C301        C  0.21339073  0.41624941  0.77273926    -0.06000
H302        H  0.24488989  0.39057128  0.78321721     0.07800
H303        H  0.20050121  0.41934556  0.76818952     0.09000
Cu304      Cu  0.26405343  0.41713997  0.75923292     0.44200
Cu305      Cu  0.23048228  0.44646258  0.75203198     0.42000
Cu306      Cu  0.26447309  0.44050207  0.71949495     0.43900
N307        N  0.27297859  0.40656870  0.73632947    -0.34600
N308        N  0.27269655  0.41455986  0.72121913    -0.28900
C309        C  0.27700764  0.40290457  0.70873565    -0.05000
C310        C  0.27957610  0.38677953  0.71648158     0.07200
C311        C  0.27704788  0.38974718  0.73394887     0.01000
H312        H  0.27765013  0.40577531  0.69504323     0.08700
H313        H  0.27776475  0.38026975  0.74424042     0.07800
N314        N  0.25424224  0.46481391  0.72666209    -0.36100
N315        N  0.24181293  0.46673249  0.73834814    -0.28300
C316        C  0.23953168  0.48377168  0.74170837    -0.03500
C317        C  0.25104068  0.49314633  0.73175816     0.05100
C318        C  0.26011934  0.48070227  0.72228538     0.03200
H319        H  0.23081079  0.48888014  0.75147801     0.08300
H320        H  0.27090496  0.48295540  0.71367035     0.07200
N321        N  0.29604026  0.58259452  0.72607233    -0.27200
N322        N  0.30092551  0.58925794  0.74110341    -0.35100
C323        C  0.30752148  0.60511241  0.73859929     0.01100
C324        C  0.30659172  0.60904339  0.72118136     0.07100
C325        C  0.29936153  0.59432188  0.71354492    -0.06000
H326        H  0.31078964  0.61395652  0.74902740     0.07800
H327        H  0.29512611  0.59298871  0.70024986     0.09000
Cu328      Cu  0.29105957  0.58201543  0.76468431     0.44200
Cu329      Cu  0.28169053  0.55956636  0.72459442     0.42000
Cu330      Cu  0.25135729  0.56018218  0.76001591     0.43900
N331        N  0.26923275  0.58947615  0.77814522    -0.34600
N332        N  0.25405748  0.58216196  0.77546796    -0.28900
C333        C  0.24155536  0.59292232  0.78134385    -0.05000
C334        C  0.24927236  0.60786727  0.78777286     0.07200
C335        C  0.26683455  0.60508678  0.78572906     0.01000
H336        H  0.22785703  0.59069868  0.77963883     0.08700
H337        H  0.27690948  0.61464266  0.78746549     0.07800
N338        N  0.25470620  0.53892536  0.74362996    -0.36100
N339        N  0.26604101  0.53828790  0.73078982    -0.28300
C340        C  0.26619974  0.52201360  0.72408440    -0.03500
C341        C  0.25434689  0.51204646  0.73314072     0.05100
C342        C  0.24730611  0.52326830  0.74534964     0.03200
H343        H  0.27473727  0.51760713  0.71383155     0.08300
H344        H  0.23808014  0.52008649  0.75536436     0.07200
C345        C  0.31373164  0.70130990  0.67115703     0.86500
C346        C  0.30976151  0.68264459  0.67694706    -0.53700
C347        C  0.31414034  0.67901387  0.69370810     0.09500
C348        C  0.32179213  0.69481714  0.70344882     0.20400
C349        C  0.30388886  0.71260562  0.68453573    -0.54400
C350        C  0.30798309  0.70919026  0.70132956     0.09600
C351        C  0.33289632  0.70400714  0.67542142    -0.54000
C352        C  0.33728945  0.70056341  0.69222070     0.10100
H353        H  0.30386686  0.67307846  0.66843365     0.14700
H354        H  0.32526991  0.69238765  0.71715378     0.00400
H355        H  0.29375410  0.72189243  0.68159123     0.15000
H356        H  0.34226277  0.70808263  0.66579534     0.14700
N357        N  0.22444677  0.27174619  0.90391249    -0.27200
N358        N  0.24054053  0.27443372  0.89895477    -0.35100
C359        C  0.24056645  0.28091201  0.88287954     0.01100
C360        C  0.22364506  0.28288997  0.87730216     0.07100
C361        C  0.21370285  0.27678070  0.89102702    -0.06000
H362        H  0.25218955  0.28262081  0.87530639     0.07800
H363        H  0.19977910  0.27550944  0.89136113     0.09000
Cu364      Cu  0.26201954  0.26429898  0.91124614     0.44200
Cu365      Cu  0.21964072  0.25914926  0.92728800     0.42000
Cu366      Cu  0.25187711  0.22481990  0.93061763     0.43900
N367        N  0.27514473  0.24174949  0.90534904    -0.34600
N368        N  0.26908313  0.22639007  0.90971221    -0.28900
C369        C  0.27413244  0.21464226  0.89758360    -0.05000
C370        C  0.28369088  0.22323194  0.88493842     0.07200
C371        C  0.28454712  0.24022796  0.89086080     0.01000
H372        H  0.26980728  0.20129479  0.89710122     0.08700
H373        H  0.28995470  0.25125308  0.88422482     0.07800
N374        N  0.23743560  0.23415653  0.95180758    -0.36100
N375        N  0.22565975  0.24668253  0.95054684    -0.28300
C376        C  0.22068145  0.25158059  0.96660342    -0.03500
C377        C  0.22979464  0.24179724  0.97862036     0.05100
C378        C  0.24022966  0.23082930  0.96873373     0.03200
H379        H  0.21192045  0.26228180  0.96933579     0.08300
H380        H  0.24996534  0.22188567  0.97350452     0.07200
N381        N  0.26159098  0.23839299  0.07339689    -0.27200
N382        N  0.26394960  0.25344226  0.08136386    -0.35100
C383        C  0.26913191  0.25058856  0.09770732     0.01100
C384        C  0.27001763  0.23283874  0.10040981     0.07100
C385        C  0.26543654  0.22546913  0.08456730    -0.06000
H386        H  0.27132314  0.26078732  0.10714246     0.07800
H387        H  0.26406374  0.21175651  0.08170407     0.09000
Cu388      Cu  0.25491274  0.27693450  0.07223811     0.44200
Cu389      Cu  0.25068011  0.23710379  0.04861104     0.42000
Cu390      Cu  0.21837269  0.27115391  0.04508412     0.43900
N391        N  0.23243836  0.29097341  0.07552627    -0.34600
N392        N  0.21798262  0.28699628  0.06732668    -0.28900
C393        C  0.20448385  0.29255349  0.07705334    -0.05000
C394        C  0.21089170  0.30073042  0.09182357     0.07200
C395        C  0.22862937  0.29946280  0.09028738     0.01000
H396        H  0.19110538  0.28944728  0.07443342     0.08700
H397        H  0.23790658  0.30193521  0.10049497     0.07800
N398        N  0.22591909  0.25524861  0.02415209    -0.36100
N399        N  0.23780350  0.24283603  0.02544658    -0.28300
C400        C  0.24064035  0.23585424  0.00961600    -0.03500
C401        C  0.23008364  0.24424766  0.99772230     0.05100
C402        C  0.22092921  0.25645650  0.00744280     0.03200
H403        H  0.25011495  0.22578747  0.00687911     0.08300
H404        H  0.21172902  0.26593233  0.00262817     0.07200
N405        N  0.27257889  0.91848646  0.23060539    -0.27200
N406        N  0.27515211  0.91169142  0.24606049    -0.35100
C407        C  0.28098962  0.89533162  0.24435178     0.01100
C408        C  0.28205848  0.89139547  0.22692874     0.07100
C409        C  0.27695360  0.90651739  0.21848340    -0.06000
H410        H  0.28291710  0.88651148  0.25506428     0.07800
H411        H  0.27523545  0.90818167  0.20467765     0.09000
Cu412      Cu  0.26354284  0.92114611  0.26799172     0.44200
Cu413      Cu  0.25989665  0.94238925  0.22848754     0.42000
Cu414      Cu  0.22457697  0.94342666  0.26024712     0.43900
N415        N  0.24016094  0.91222490  0.27645187    -0.34600
N416        N  0.22505600  0.91931717  0.27272984    -0.28900
C417        C  0.21251982  0.90771992  0.27654266    -0.05000
C418        C  0.22035230  0.89246309  0.28264598     0.07200
C419        C  0.23786692  0.89608843  0.28226103     0.01000
H420        H  0.19889172  0.91012750  0.27452974     0.08700
H421        H  0.24846048  0.88714371  0.28458393     0.07800
N422        N  0.23433328  0.96552762  0.24784870    -0.36100
N423        N  0.24695483  0.96506669  0.23622559    -0.28300
C424        C  0.25114015  0.98147754  0.23193977    -0.03500
C425        C  0.24079687  0.99285919  0.24135851     0.05100
C426        C  0.23028060  0.98228471  0.25127523     0.03200
H427        H  0.26146418  0.98486929  0.22314310     0.08300
H428        H  0.22074329  0.98646295  0.26070353     0.07200
N429        N  0.21387004  0.08737166  0.25912590    -0.27200
N430        N  0.20990401  0.09610265  0.24495949    -0.35100
C431        C  0.20511171  0.11232332  0.24928146     0.01100
C432        C  0.20644457  0.11421423  0.26702327     0.07100
C433        C  0.21171866  0.09799756  0.27296974    -0.06000
H434        H  0.20266677  0.12252928  0.23998294     0.07800
H435        H  0.21529231  0.09470251  0.28610867     0.09000
Cu436      Cu  0.21870503  0.08950082  0.22065148     0.44200
Cu437      Cu  0.22523600  0.06274798  0.25746267     0.42000
Cu438      Cu  0.25541691  0.06170095  0.22143891     0.43900
N439        N  0.24096902  0.09490216  0.20717195    -0.34600
N440        N  0.25537903  0.08573526  0.20889149    -0.28900
C441        C  0.26874238  0.09542674  0.20332103    -0.05000
C442        C  0.26228589  0.11140265  0.19783453     0.07200
C443        C  0.24465588  0.11048185  0.20038171     0.01000
H444        H  0.28220271  0.09159840  0.20424773     0.08700
H445        H  0.23548087  0.12112212  0.19935055     0.07800
N446        N  0.24737152  0.03945184  0.23461099    -0.36100
N447        N  0.23622395  0.03986641  0.24763676    -0.28300
C448        C  0.23237771  0.02343668  0.25215660    -0.03500
C449        C  0.24153314  0.01209747  0.24151979     0.05100
C450        C  0.25095802  0.02271948  0.23060189     0.03200
H451        H  0.22322892  0.02001421  0.26216199     0.08300
H452        H  0.25932940  0.01859823  0.22009928     0.07200
N453        N  0.71531992  0.28183372  0.41738873    -0.27200
N454        N  0.71177464  0.26671735  0.41002310    -0.35100
C455        C  0.70506373  0.26934900  0.39423203     0.01100
C456        C  0.70449204  0.28698348  0.39109920     0.07100
C457        C  0.71104275  0.29461379  0.40614786    -0.06000
H458        H  0.70254661  0.25908649  0.38493406     0.07800
H459        H  0.71326869  0.30831309  0.40841864     0.09000
Cu460      Cu  0.72255305  0.24349881  0.41760282     0.44200
Cu461      Cu  0.72796044  0.28284600  0.44154618     0.42000
Cu462      Cu  0.75994738  0.24767231  0.44303044     0.43900
N463        N  0.74504232  0.23021090  0.41204794    -0.34600
N464        N  0.75970069  0.23273543  0.42040328    -0.28900
C465        C  0.77282363  0.22624280  0.41071803    -0.05000
C466        C  0.76596685  0.21953039  0.39539053     0.07200
C467        C  0.74830871  0.22222027  0.39693607     0.01000
H468        H  0.78632195  0.22715010  0.41423055     0.08700
H469        H  0.73868253  0.22025007  0.38695038     0.07800
N470        N  0.75265259  0.26262075  0.46452833    -0.36100
N471        N  0.74108613  0.27541627  0.46430252    -0.28300
C472        C  0.73861097  0.28114288  0.48074213    -0.03500
C473        C  0.74903005  0.27139780  0.49176962     0.05100
C474        C  0.75771884  0.25986656  0.48095661     0.03200
H475        H  0.72944287  0.29118128  0.48446453     0.08300
H476        H  0.76673008  0.24977393  0.48479632     0.07200
N477        N  0.78267271  0.24754823  0.58166229    -0.27200
N478        N  0.78850531  0.26017413  0.59170579    -0.35100
C479        C  0.79381240  0.25343115  0.60679448     0.01100
C480        C  0.79121985  0.23569214  0.60633881     0.07100
C481        C  0.78415511  0.23232520  0.59017309    -0.06000
H482        H  0.79709821  0.26110790  0.61810467     0.07800
H483        H  0.77879020  0.22013324  0.58572181     0.09000
Cu484      Cu  0.78171486  0.28589846  0.58844815     0.44200
Cu485      Cu  0.76949412  0.25308346  0.55888510     0.42000
Cu486      Cu  0.74336797  0.29187458  0.56279216     0.43900
N487        N  0.76087926  0.30055697  0.59665902    -0.34600
N488        N  0.74589686  0.30105964  0.58844974    -0.28900
C489        C  0.73350844  0.30572653  0.59995700    -0.05000
C490        C  0.74110960  0.30833189  0.61619757     0.07200
C491        C  0.75853333  0.30506692  0.61331310     0.01000
H492        H  0.71983629  0.30546675  0.59706023     0.08700
H493        H  0.76862054  0.30412537  0.62296710     0.07800
N494        N  0.74792185  0.27922169  0.53889731    -0.36100
N495        N  0.75759981  0.26498591  0.53785641    -0.28300
C496        C  0.75923731  0.26021512  0.52116221    -0.03500
C497        C  0.75015467  0.27188282  0.51097998     0.05100
C498        C  0.74306435  0.28379275  0.52267904     0.03200
H499        H  0.76675700  0.24912842  0.51675448     0.08300
H500        H  0.73530417  0.29512438  0.51959640     0.07200
N501        N  0.43184986  0.72240091  0.72627504    -0.27200
N502        N  0.42360339  0.71919469  0.74089017    -0.35100
C503        C  0.40822855  0.71205475  0.73733049     0.01100
C504        C  0.40638094  0.71093247  0.71959405     0.07100
C505        C  0.42169228  0.71752210  0.71290161    -0.06000
H506        H  0.39812555  0.71016661  0.74683213     0.07800
H507        H  0.42462176  0.71986868  0.69941104     0.09000
Cu508      Cu  0.42862836  0.73229315  0.76356386     0.44200
Cu509      Cu  0.45488554  0.73643948  0.72638312     0.42000
Cu510      Cu  0.45188769  0.77143273  0.75799456     0.43900
N511        N  0.41966435  0.75595154  0.77243516    -0.34600
N512        N  0.42719078  0.77094699  0.76915923    -0.28900
C513        C  0.41575725  0.78391401  0.77258147    -0.05000
C514        C  0.40022090  0.77653288  0.77783666     0.07200
C515        C  0.40342863  0.75882971  0.77786539     0.01000
H516        H  0.41820891  0.79757723  0.77046917     0.08700
H517        H  0.39433761  0.74860792  0.78071736     0.07800
N518        N  0.47526780  0.76314233  0.74677582    -0.36100
N519        N  0.47628675  0.75047874  0.73511033    -0.28300
C520        C  0.49308300  0.74710974  0.73169391    -0.03500
C521        C  0.50318769  0.75806980  0.74172833     0.05100
C522        C  0.49142749  0.76807570  0.75109790     0.03200
H523        H  0.49760929  0.73682999  0.72316833     0.08300
H524        H  0.49440108  0.77773126  0.76088137     0.07200
N525        N  0.59338366  0.76721451  0.78273897    -0.27200
N526        N  0.60095776  0.75209056  0.78579727    -0.35100
C527        C  0.61657027  0.75478733  0.79282360     0.01100
C528        C  0.61935365  0.77250523  0.79412000     0.07100
C529        C  0.60421142  0.78003307  0.78771053    -0.06000
H530        H  0.62601216  0.74456022  0.79490727     0.07800
H531        H  0.60199132  0.79367864  0.78511795     0.09000
Cu532      Cu  0.59460952  0.72938327  0.77309612     0.44200
Cu533      Cu  0.57037414  0.76856565  0.76848503     0.42000
Cu534      Cu  0.57266475  0.73686078  0.73364728     0.43900
N535        N  0.60254544  0.71844534  0.74997878    -0.34600
N536        N  0.59588248  0.72284924  0.73487449    -0.28900
C537        C  0.60743778  0.71886190  0.72231540    -0.05000
C538        C  0.62211830  0.71157814  0.72997668     0.07200
C539        C  0.61826439  0.71140751  0.74752025     0.01000
H540        H  0.60591417  0.72257184  0.70890800     0.08700
H541        H  0.62693841  0.70812301  0.75801247     0.07800
N542        N  0.54993923  0.75014005  0.74048702    -0.36100
N543        N  0.54904751  0.76177278  0.75317739    -0.28300
C544        C  0.53240337  0.76677998  0.75522607    -0.03500
C545        C  0.52231169  0.75783200  0.74332874     0.05100
C546        C  0.53390581  0.74742471  0.73421486     0.03200
H547        H  0.52789076  0.77572837  0.76513218     0.08300
H548        H  0.53084092  0.73807488  0.72416840     0.07200
N549        N  0.71202734  0.42600247  0.26362018    -0.27200
N550        N  0.70792259  0.41740473  0.24933693    -0.35100
C551        C  0.69964651  0.40277163  0.25359488     0.01100
C552        C  0.69861284  0.40190219  0.27140285     0.07100
C553        C  0.70672048  0.41678062  0.27743241    -0.06000
H554        H  0.69655426  0.39247185  0.24452107     0.07800
H555        H  0.70950708  0.42008196  0.29078338     0.09000
Cu556      Cu  0.71975473  0.42123116  0.22573499     0.44200
Cu557      Cu  0.72642534  0.44873663  0.26287031     0.42000
Cu558      Cu  0.75746254  0.44689512  0.22799316     0.43900
N559        N  0.74223180  0.41450877  0.21289551    -0.34600
N560        N  0.75689593  0.42289228  0.21532870    -0.28900
C561        C  0.77012157  0.41237262  0.21062012    -0.05000
C562        C  0.76335781  0.39674252  0.20470049     0.07200
C563        C  0.74565560  0.39863750  0.20633510     0.01000
H564        H  0.78363234  0.41526323  0.21277304     0.08700
H565        H  0.73620314  0.38837399  0.20522436     0.07800
N566        N  0.75020333  0.46992183  0.24051385    -0.36100
N567        N  0.73895220  0.47059742  0.25342499    -0.28300
C568        C  0.73553012  0.48738097  0.25731485    -0.03500
C569        C  0.74499458  0.49777642  0.24625523     0.05100
C570        C  0.75418148  0.48625495  0.23582815     0.03200
H571        H  0.72611258  0.49166926  0.26681715     0.08300
H572        H  0.76250964  0.48948131  0.22506506     0.07200
N573        N  0.75555757  0.58792741  0.20566147    -0.27200
N574        N  0.74270806  0.59930769  0.20612098    -0.35100
C575        C  0.74795508  0.61429954  0.19917856     0.01100
C576        C  0.76508761  0.61258124  0.19424770     0.07100
C577        C  0.76942837  0.59547932  0.19832420    -0.06000
H578        H  0.74057158  0.62629532  0.19986447     0.07800
H579        H  0.78201335  0.58935299  0.19729420     0.09000
Cu580      Cu  0.72176729  0.59730747  0.22240912     0.44200
Cu581      Cu  0.75406639  0.56451747  0.21892747     0.42000
Cu582      Cu  0.72681652  0.56824748  0.25776839     0.43900
N583        N  0.71327056  0.60317711  0.24703321    -0.34600
N584        N  0.71661577  0.59341725  0.26068223    -0.28900
C585        C  0.71383921  0.60305586  0.27513137    -0.05000
C586        C  0.70823082  0.61952672  0.27017410     0.07200
C587        C  0.70810916  0.61903438  0.25229337     0.01000
H588        H  0.71649365  0.59871433  0.28818015     0.08700
H589        H  0.70613021  0.62996246  0.24372042     0.07800
N590        N  0.73739475  0.54479910  0.24847211    -0.36100
N591        N  0.74738271  0.54363421  0.23455826    -0.28300
C592        C  0.75175132  0.52686509  0.23187289    -0.03500
C593        C  0.74415055  0.51690907  0.24461540     0.05100
C594        C  0.73510019  0.52869388  0.25489996     0.03200
H595        H  0.75962176  0.52224186  0.22118720     0.08300
H596        H  0.72727344  0.52576931  0.26612091     0.07200
N597        N  0.76857361  0.78836713  0.41648007    -0.27200
N598        N  0.75412964  0.78955810  0.40740077    -0.35100
C599        C  0.75786253  0.79378613  0.39101610     0.01100
C600        C  0.77556228  0.79524423  0.38940917     0.07100
C601        C  0.78202243  0.79204242  0.40593254    -0.06000
H602        H  0.74836608  0.79471448  0.38076230     0.07800
H603        H  0.79549071  0.79138501  0.40969900     0.09000
Cu604      Cu  0.73064846  0.77988407  0.41508449     0.44200
Cu605      Cu  0.76810837  0.77921795  0.44198715     0.42000
Cu606      Cu  0.73469766  0.74583877  0.44468256     0.43900
N607        N  0.71756551  0.75692074  0.41207870    -0.34600
N608        N  0.72082714  0.74318127  0.42175805    -0.28900
C609        C  0.71570253  0.72879916  0.41313167    -0.05000
C610        C  0.70858961  0.73396353  0.39746124     0.07200
C611        C  0.71005212  0.75181857  0.39727453     0.01000
H612        H  0.71820552  0.71560471  0.41729393     0.08700
H613        H  0.70805100  0.76016962  0.38619847     0.07800
N614        N  0.74707873  0.75661514  0.46611571    -0.36100
N615        N  0.75919280  0.76868782  0.46531852    -0.28300
C616        C  0.76341297  0.77353368  0.48160069    -0.03500
C617        C  0.75340660  0.76415050  0.49312841     0.05100
C618        C  0.74324853  0.75356739  0.48282692     0.03200
H619        H  0.77277002  0.78344812  0.48479094     0.08300
H620        H  0.73351012  0.74452094  0.48712951     0.07200
N621        N  0.74017506  0.73027966  0.58386156    -0.27200
N622        N  0.75513851  0.72563438  0.59072700    -0.35100
C623        C  0.75234485  0.71636230  0.60509610     0.01100
C624        C  0.73474295  0.71515973  0.60767498     0.07100
C625        C  0.72732200  0.72427671  0.59401839    -0.06000
H626        H  0.76235522  0.71267791  0.61419331     0.07800
H627        H  0.71373456  0.72721463  0.59222703     0.09000
Cu628      Cu  0.77782833  0.73821388  0.58528823     0.44200
Cu629      Cu  0.73962510  0.74626592  0.56207888     0.42000
Cu630      Cu  0.77551892  0.77733048  0.56119629     0.43900
N631        N  0.79097030  0.76035334  0.59220994    -0.34600
N632        N  0.78936456  0.77544004  0.58427904    -0.28900
C633        C  0.79611519  0.78796773  0.59452456    -0.05000
C634        C  0.80201339  0.78029413  0.60976949     0.07200
C635        C  0.79857300  0.76277793  0.60760520     0.01000
H636        H  0.79603354  0.80164061  0.59135372     0.08700
H637        H  0.79992371  0.75270541  0.61726048     0.07800
N638        N  0.76100298  0.77034607  0.53949341    -0.36100
N639        N  0.74804119  0.75916758  0.53986060    -0.28300
C640        C  0.74301547  0.75578637  0.52348863    -0.03500
C641        C  0.75328854  0.76519673  0.51226531     0.05100
C642        C  0.76447345  0.77436308  0.52287605     0.03200
H643        H  0.73320341  0.74643720  0.51998936     0.08300
H644        H  0.77500530  0.78258213  0.51879633     0.07200
N645        N  0.73347983  0.41703084  0.74795633    -0.27200
N646        N  0.73156519  0.40908659  0.76293965    -0.35100
C647        C  0.72542839  0.39304932  0.76028804     0.01100
C648        C  0.72292733  0.39056502  0.74272781     0.07100
C649        C  0.72831321  0.40608680  0.73521935    -0.06000
H650        H  0.72438554  0.38339781  0.77036745     0.07800
H651        H  0.72903924  0.40892261  0.72152499     0.09000
Cu652      Cu  0.74247700  0.41734109  0.78569092     0.44200
Cu653      Cu  0.74535474  0.44147537  0.74711452     0.42000
Cu654      Cu  0.77925608  0.44294572  0.78069901     0.43900
N655        N  0.76518022  0.41174991  0.79813273    -0.34600
N656        N  0.77973725  0.42002465  0.79511636    -0.28900
C657        C  0.79305547  0.40990737  0.80042776    -0.05000
C658        C  0.78640675  0.39433555  0.80679897     0.07200
C659        C  0.76867389  0.39629213  0.80523143     0.01000
H660        H  0.80648684  0.41327576  0.79874703     0.08700
H661        H  0.75907760  0.38626612  0.80693890     0.07800
N662        N  0.77016818  0.46468067  0.76717289    -0.36100
N663        N  0.75794695  0.46429701  0.75512799    -0.28300
C664        C  0.75395362  0.48080128  0.75066524    -0.03500
C665        C  0.76403368  0.49208457  0.76040776     0.05100
C666        C  0.77417045  0.48136494  0.77064899     0.03200
H667        H  0.74383383  0.48434527  0.74164032     0.08300
H668        H  0.78322959  0.48540566  0.78054044     0.07200
N669        N  0.77230354  0.58562344  0.79658188    -0.27200
N670        N  0.75824199  0.59540367  0.79804664    -0.35100
C671        C  0.76252318  0.61105545  0.80449126     0.01100
C672        C  0.78018700  0.61142434  0.80700535     0.07100
C673        C  0.78601565  0.59501573  0.80192315    -0.06000
H674        H  0.75379094  0.62210571  0.80510436     0.07800
H675        H  0.79933897  0.59073757  0.80088287     0.09000
Cu676      Cu  0.73583860  0.59064885  0.78443740     0.44200
Cu677      Cu  0.77191067  0.56128778  0.78416711     0.42000
Cu678      Cu  0.74136557  0.56088250  0.74884389     0.43900
N679        N  0.72557618  0.59488233  0.76018457    -0.34600
N680        N  0.72904092  0.58493293  0.74658132    -0.28900
C681        C  0.72548572  0.59397118  0.73207731    -0.05000
C682        C  0.71948154  0.61033642  0.73690265     0.07200
C683        C  0.71956174  0.61034043  0.75477537     0.01000
H684        H  0.72822459  0.58943246  0.71906412     0.08700
H685        H  0.71746108  0.62148854  0.76315543     0.07800
N686        N  0.75448166  0.53866696  0.75712070    -0.36100
N687        N  0.76573760  0.53876819  0.77004117    -0.28300
C688        C  0.77118588  0.52232353  0.77285677    -0.03500
C689        C  0.76292889  0.51133573  0.76121520     0.05100
C690        C  0.75244801  0.52219258  0.75144024     0.03200
H691        H  0.78007409  0.51857116  0.78301931     0.08300
H692        H  0.74361611  0.51835662  0.74126256     0.07200
C693        C  0.71341325  0.69757588  0.67811082     0.86500
C694        C  0.69495923  0.70250325  0.68407217    -0.53700
C695        C  0.69168415  0.70017792  0.70141867     0.09500
C696        C  0.70764006  0.69282486  0.71116993     0.20400
C697        C  0.72547639  0.70789864  0.69010134    -0.54400
C698        C  0.72255087  0.70552564  0.70731274     0.09600
C699        C  0.71535585  0.67847565  0.68408669    -0.54000
C700        C  0.71229281  0.67601565  0.70129570     0.10100
H701        H  0.68530534  0.70736778  0.67509389     0.14700
H702        H  0.70591663  0.69025241  0.72510263     0.00400
H703        H  0.73532933  0.71667752  0.68533600     0.15000
H704        H  0.71802762  0.66745291  0.67571936     0.14700
N705        N  0.78899323  0.25757421  0.91903061    -0.27200
N706        N  0.79045317  0.24157695  0.91287472    -0.35100
C707        C  0.79760524  0.24190199  0.89701009     0.01100
C708        C  0.80075309  0.25900676  0.89265771     0.07100
C709        C  0.79537737  0.26858382  0.90710427    -0.06000
H710        H  0.79899549  0.23057619  0.88875724     0.07800
H711        H  0.79471066  0.28261184  0.90815552     0.09000
Cu712      Cu  0.77583991  0.22149431  0.92193289     0.44200
Cu713      Cu  0.77469402  0.26288129  0.94170653     0.42000
Cu714      Cu  0.73619153  0.23638257  0.94071853     0.43900
N715        N  0.75194421  0.21485708  0.91266716    -0.34600
N716        N  0.73710642  0.22092161  0.91869153    -0.28900
C717        C  0.72468116  0.21795627  0.90680690    -0.05000
C718        C  0.73221152  0.20982671  0.89250062     0.07200
C719        C  0.74954100  0.20834444  0.89676870     0.01000
H720        H  0.71145327  0.22247487  0.90801497     0.08700
H721        H  0.76011611  0.20481940  0.88827320     0.07800
N722        N  0.74321223  0.25141390  0.96191982    -0.36100
N723        N  0.75733368  0.26103499  0.96266604    -0.28300
C724        C  0.75871415  0.26768222  0.97885658    -0.03500
C725        C  0.74481508  0.26189947  0.98865612     0.05100
C726        C  0.73530464  0.25167741  0.97742318     0.03200
H727        H  0.76937684  0.27555304  0.98334711     0.08300
H728        H  0.72381991  0.24433432  0.98046332     0.07200
N729        N  0.71380862  0.23346564  0.07663815    -0.27200
N730        N  0.72709157  0.22850427  0.08619094    -0.35100
C731        C  0.72135194  0.22059613  0.10047243     0.01100
C732        C  0.70352143  0.22061919  0.10020084     0.07100
C733        C  0.69907747  0.22903385  0.08490262    -0.06000
H734        H  0.72940948  0.21762284  0.11155208     0.07800
H735        H  0.68625539  0.23318045  0.08102600     0.09000
Cu736      Cu  0.75074623  0.24030402  0.08466612     0.44200
Cu737      Cu  0.71810109  0.24865620  0.05468575     0.42000
Cu738      Cu  0.75515551  0.27821284  0.05918681     0.43900
N739        N  0.76266234  0.26242679  0.09358912    -0.34600
N740        N  0.76365264  0.27711019  0.08485998    -0.28900
C741        C  0.76913396  0.28975976  0.09574167    -0.05000
C742        C  0.77143658  0.28254876  0.11210735     0.07200
C743        C  0.76718180  0.26524675  0.11011505     0.01000
H744        H  0.77041302  0.30329930  0.09225293     0.08700
H745        H  0.76659276  0.25552018  0.12017682     0.07800
N746        N  0.74464344  0.27052545  0.03539208    -0.36100
N747        N  0.73111246  0.26012925  0.03391158    -0.28300
C748        C  0.72879660  0.25618699  0.01706507    -0.03500
C749        C  0.74147522  0.26432546  0.00741788     0.05100
C750        C  0.75126437  0.27336331  0.01947276     0.03200
H751        H  0.71918409  0.24718466  0.01231025     0.08300
H752        H  0.76286818  0.28072521  0.01697044     0.07200
N753        N  0.91856034  0.76801827  0.28058065    -0.27200
N754        N  0.90979775  0.75393517  0.28466209    -0.35100
C755        C  0.89439847  0.75860195  0.29132367     0.01100
C756        C  0.89318399  0.77652271  0.29125210     0.07100
C757        C  0.90883578  0.78211863  0.28448739    -0.06000
H758        H  0.88402170  0.74961983  0.29397171     0.07800
H759        H  0.91238355  0.79535069  0.28148408     0.09000
Cu760      Cu  0.91527771  0.72990271  0.27420609     0.44200
Cu761      Cu  0.94172926  0.76650185  0.26680347     0.42000
Cu762      Cu  0.94168331  0.73051841  0.23609546     0.43900
N763        N  0.90906908  0.71689553  0.25175834    -0.34600
N764        N  0.91795956  0.71792333  0.23717501    -0.28900
C765        C  0.90777975  0.71270171  0.22396348    -0.05000
C766        C  0.89173670  0.70839849  0.23067577     0.07200
C767        C  0.89308501  0.71122940  0.24827117     0.01000
H768        H  0.91112892  0.71380075  0.21040335     0.08700
H769        H  0.88258992  0.71120350  0.25755277     0.07800
N770        N  0.96350917  0.74522890  0.24176923    -0.36100
N771        N  0.96352460  0.75834981  0.25294913    -0.28300
C772        C  0.97982248  0.76417064  0.25473741    -0.03500
C773        C  0.99058655  0.75421220  0.24425160     0.05100
C774        C  0.97978832  0.74238238  0.23617112     0.03200
H775        H  0.98362888  0.77447583  0.26351247     0.08300
H776        H  0.98355427  0.73205520  0.22734104     0.07200
N777        N  0.08359733  0.78789494  0.25311327    -0.27200
N778        N  0.09232695  0.78954209  0.23851757    -0.35100
C779        C  0.10859171  0.79433184  0.24210458     0.01100
C780        C  0.11047627  0.79539997  0.25989127     0.07100
C781        C  0.09421163  0.79159101  0.26647877    -0.06000
H782        H  0.11868373  0.79527524  0.23246573     0.07800
H783        H  0.09085216  0.78994411  0.27997785     0.09000
Cu784      Cu  0.08535459  0.77733237  0.21585461     0.44200
Cu785      Cu  0.05915076  0.77668729  0.25341136     0.42000
Cu786      Cu  0.05904715  0.74035904  0.22324979     0.43900
N787        N  0.09169444  0.75284149  0.20700364    -0.34600
N788        N  0.08301434  0.73867010  0.21098404    -0.28900
C789        C  0.09340634  0.72469089  0.20845894    -0.05000
C790        C  0.10939659  0.73051957  0.20278608     0.07200
C791        C  0.10770914  0.74838039  0.20197948     0.01000
H792        H  0.09019664  0.71155861  0.21219464     0.08700
H793        H  0.11801178  0.75759833  0.19989544     0.07800
N794        N  0.03686133  0.74990144  0.23550433    -0.36100
N795        N  0.03687768  0.76320583  0.24646651    -0.28300
C796        C  0.02047655  0.76675081  0.25128309    -0.03500
C797        C  0.00961503  0.75515242  0.24294916     0.05100
C798        C  0.02045162  0.74465640  0.23307360     0.03200
H799        H  0.01673266  0.77717206  0.26001228     0.08300
H800        H  0.01668482  0.73413736  0.22453714     0.07200
N801        N  0.27261462  0.91137924  0.78374835    -0.27200
N802        N  0.25819909  0.90260486  0.78617014    -0.35100
C803        C  0.26201336  0.88704943  0.79297552     0.01100
C804        C  0.27974144  0.88571007  0.79489577     0.07100
C805        C  0.28609279  0.90152668  0.78907649    -0.06000
H806        H  0.25269230  0.87676726  0.79472390     0.07800
H807        H  0.29949680  0.90530305  0.78801811     0.09000
Cu808      Cu  0.23517578  0.90831581  0.77413015     0.44200
Cu809      Cu  0.27254116  0.93489483  0.77045273     0.42000
Cu810      Cu  0.24114676  0.93215815  0.73559841     0.43900
N811        N  0.22533111  0.90017382  0.75079572    -0.34600
N812        N  0.22901654  0.90772197  0.73592538    -0.28900
C813        C  0.22585714  0.89624161  0.72298127    -0.05000
C814        C  0.22024835  0.88069822  0.73023676     0.07200
C815        C  0.21980176  0.88392988  0.74785190     0.01000
H816        H  0.22883302  0.89847347  0.70948007     0.08700
H817        H  0.21720322  0.87464300  0.75798393     0.07800
N818        N  0.25334641  0.95544186  0.74313598    -0.36100
N819        N  0.26483209  0.95633500  0.75583808    -0.28300
C820        C  0.26909265  0.97311335  0.75853763    -0.03500
C821        C  0.25984640  0.98338779  0.74705938     0.05100
C822        C  0.25003384  0.97170813  0.73746927     0.03200
H823        H  0.27773683  0.97755887  0.76863038     0.08300
H824        H  0.24064090  0.97486812  0.72756443     0.07200
N825        N  0.22226424  0.07401192  0.73027542    -0.27200
N826        N  0.21946699  0.08329370  0.74443303    -0.35100
C827        C  0.21237004  0.09857645  0.74014641     0.01100
C828        C  0.21040118  0.09929353  0.72232081     0.07100
C829        C  0.21669871  0.08323334  0.71647448    -0.06000
H830        H  0.21053283  0.10913467  0.74929733     0.07800
H831        H  0.21792301  0.07877746  0.70324244     0.09000
Cu832      Cu  0.23086978  0.07871656  0.76801061     0.44200
Cu833      Cu  0.23638373  0.05083366  0.73140785     0.42000
Cu834      Cu  0.26923268  0.05429034  0.76542062     0.43900
N835        N  0.25318814  0.08697040  0.77971784    -0.34600
N836        N  0.26822291  0.07911175  0.77718611    -0.28900
C837        C  0.28091216  0.09049301  0.78111623    -0.05000
C838        C  0.27333882  0.10623242  0.78628567     0.07200
C839        C  0.25576937  0.10329365  0.78538056     0.01000
H840        H  0.29455977  0.08790768  0.77925500     0.08700
H841        H  0.24564293  0.11301294  0.78660270     0.07800
N842        N  0.26257955  0.03075828  0.75292547    -0.36100
N843        N  0.25078823  0.02970263  0.74050544    -0.28300
C844        C  0.24850166  0.01286461  0.73619398    -0.03500
C845        C  0.25925192  0.00269097  0.74636909     0.05100
C846        C  0.26802559  0.01449927  0.75680171     0.03200
H847        H  0.23911049  0.00831952  0.72684726     0.08300
H848        H  0.27719776  0.01144547  0.76694443     0.07200
N849        N  0.30612821  0.76242601  0.92821334    -0.27200
N850        N  0.30996063  0.74806547  0.91954341    -0.35100
C851        C  0.31848985  0.75224169  0.90504712     0.01100
C852        C  0.31969982  0.77013691  0.90411739     0.07100
C853        C  0.31184800  0.77617419  0.91917771    -0.06000
H854        H  0.32011151  0.74337385  0.89421606     0.07800
H855        H  0.30796551  0.78947647  0.92181465     0.09000
Cu856      Cu  0.29458388  0.72638903  0.92070683     0.44200
Cu857      Cu  0.28829430  0.76243098  0.94833817     0.42000
Cu858      Cu  0.25351887  0.73164579  0.94233045     0.43900
N859        N  0.27148893  0.71775602  0.91055545    -0.34600
N860        N  0.25624769  0.72026697  0.91795432    -0.28900
C861        C  0.24378172  0.71652309  0.90635333    -0.05000
C862        C  0.25160936  0.71181806  0.89083161     0.07200
C863        C  0.26916838  0.71258038  0.89407751     0.01000
H864        H  0.23006996  0.71824811  0.90866380     0.08700
H865        H  0.27955474  0.71047516  0.88489599     0.07800
N866        N  0.25753702  0.74525730  0.96534015    -0.36100
N867        N  0.27026678  0.75650689  0.96735721    -0.28300
C868        C  0.27038521  0.76215294  0.98385515    -0.03500
C869        C  0.25712659  0.75410123  0.99271031     0.05100
C870        C  0.24916948  0.74352010  0.98055984     0.03200
H871        H  0.27982874  0.77104715  0.98913144     0.08300
H872        H  0.23854107  0.73472026  0.98275942     0.07200
N873        N  0.21267922  0.74991183  0.08261137    -0.27200
N874        N  0.21259446  0.76432441  0.09202756    -0.35100
C875        C  0.20683936  0.76081795  0.10801605     0.01100
C876        C  0.20302176  0.74334745  0.10893368     0.07100
C877        C  0.20676469  0.73679641  0.09251186    -0.06000
H878        H  0.20755799  0.76982538  0.11881287     0.07800
H879        H  0.20714089  0.72322330  0.08874306     0.09000
Cu880      Cu  0.22746982  0.78565585  0.08673284     0.44200
Cu881      Cu  0.22534167  0.74856289  0.05861302     0.42000
Cu882      Cu  0.26414483  0.77470262  0.06168144     0.43900
N883        N  0.25210643  0.79256886  0.09375625    -0.34600
N884        N  0.26602569  0.78716986  0.08535579    -0.28900
C885        C  0.27993218  0.78911852  0.09566958    -0.05000
C886        C  0.27433561  0.79594955  0.11138051     0.07200
C887        C  0.25667751  0.79810197  0.10958241     0.01000
H888        H  0.29291413  0.78500452  0.09229364     0.08700
H889        H  0.24759265  0.80165792  0.11968848     0.07800
N890        N  0.25575736  0.76312556  0.03899107    -0.36100
N891        N  0.24169609  0.75349894  0.03755376    -0.28300
C892        C  0.23991906  0.74862521  0.02081735    -0.03500
C893        C  0.25345841  0.75565534  0.01140731     0.05100
C894        C  0.26318342  0.76473256  0.02337172     0.03200
H895        H  0.22944362  0.74078861  0.01584361     0.08300
H896        H  0.27479006  0.77211036  0.02093247     0.07200
N897        N  0.92241669  0.27014110  0.76463984    -0.27200
N898        N  0.91448702  0.27499130  0.75029035    -0.35100
C899        C  0.89882776  0.28147635  0.75421395     0.01100
C900        C  0.89646698  0.28069769  0.77195979     0.07100
C901        C  0.91183897  0.27350967  0.77821955    -0.06000
H902        H  0.88922833  0.28498364  0.74462619     0.07800
H903        H  0.91452266  0.26961138  0.79139708     0.09000
Cu904      Cu  0.92116650  0.26589574  0.72607632     0.44200
Cu905      Cu  0.94587128  0.25639537  0.76333966     0.42000
Cu906      Cu  0.94461162  0.22611123  0.72716840     0.43900
N907        N  0.91285845  0.24370130  0.71378874    -0.34600
N908        N  0.92037723  0.22833912  0.71562514    -0.28900
C909        C  0.90872518  0.21585424  0.71194303    -0.05000
C910        C  0.89309858  0.22389506  0.70797549     0.07200
C911        C  0.89638427  0.24149785  0.70892385     0.01000
H912        H  0.91092267  0.20207457  0.71378770     0.08700
H913        H  0.88696558  0.25193869  0.70814172     0.07800
N914        N  0.96728236  0.23247766  0.74026174    -0.36100
N915        N  0.96777847  0.24350038  0.75349327    -0.28300
C916        C  0.98443986  0.24636273  0.75770642    -0.03500
C917        C  0.99492912  0.23677946  0.74656400     0.05100
C918        C  0.98357934  0.22808992  0.73573060     0.03200
H919        H  0.98861883  0.25551386  0.76751930     0.08300
H920        H  0.98691565  0.21992740  0.72474998     0.07200
N921        N  0.08550590  0.23249099  0.70500207    -0.27200
N922        N  0.09331894  0.24761603  0.70339692    -0.35100
C923        C  0.10916294  0.24509633  0.69674240     0.01100
C924        C  0.11183665  0.22746403  0.69420949     0.07100
C925        C  0.09640141  0.21983876  0.69942600    -0.06000
H926        H  0.11888266  0.25513414  0.69612866     0.07800
H927        H  0.09410671  0.20608420  0.70109427     0.09000
Cu928      Cu  0.08700907  0.26904188  0.71817432     0.44200
Cu929      Cu  0.06236953  0.23046370  0.71899199     0.42000
Cu930      Cu  0.06275725  0.26016824  0.75612362     0.43900
N931        N  0.09362369  0.27848270  0.74226220    -0.34600
N932        N  0.08554355  0.27437457  0.75674141    -0.28900
C933        C  0.09582488  0.27835904  0.77032107    -0.05000
C934        C  0.11114150  0.28506934  0.76389635     0.07200
C935        C  0.10920085  0.28495816  0.74612219     0.01000
H936        H  0.09308167  0.27506415  0.78364755     0.08700
H937        H  0.11911711  0.28766745  0.73663007     0.07800
N938        N  0.04113234  0.24615276  0.74834349    -0.36100
N939        N  0.04082383  0.23543739  0.73485132    -0.28300
C940        C  0.02445568  0.22991175  0.73252330    -0.03500
C941        C  0.01399992  0.23754698  0.74509684     0.05100
C942        C  0.02505555  0.24769523  0.75489654     0.03200
H943        H  0.02034199  0.22157494  0.72198672     0.08300
H944        H  0.02155483  0.25622711  0.76554326     0.07200
N945        N  0.72306488  0.77283416  0.92347922    -0.27200
N946        N  0.72018147  0.75755708  0.91612615    -0.35100
C947        C  0.71361610  0.75998514  0.90020265     0.01100
C948        C  0.71250411  0.77762412  0.89712380     0.07100
C949        C  0.71867546  0.78541812  0.91215822    -0.06000
H950        H  0.71232278  0.74976123  0.89060438     0.07800
H951        H  0.72131650  0.79909848  0.91405407     0.09000
Cu952      Cu  0.73315410  0.73522569  0.92321329     0.44200
Cu953      Cu  0.73644993  0.77524303  0.94692368     0.42000
Cu954      Cu  0.77127522  0.74418433  0.94778119     0.43900
N955        N  0.75711125  0.72504284  0.91703614    -0.34600
N956        N  0.77153356  0.72949917  0.92503088    -0.28900
C957        C  0.78507337  0.72549801  0.91470064    -0.05000
C958        C  0.77880563  0.71825163  0.89941151     0.07200
C959        C  0.76102604  0.71811264  0.90152724     0.01000
H960        H  0.79827014  0.72922504  0.91739585     0.08700
H961        H  0.75149501  0.71490748  0.89177669     0.07800
N962        N  0.76463430  0.75963791  0.96904407    -0.36100
N963        N  0.75179656  0.77110670  0.96887183    -0.28300
C964        C  0.75017283  0.77815887  0.98484753    -0.03500
C965        C  0.76256148  0.77071572  0.99556395     0.05100
C966        C  0.77148567  0.75907404  0.98506161     0.03200
H967        H  0.74040126  0.78763099  0.98850008     0.08300
H968        H  0.78192244  0.75046667  0.98887705     0.07200
N969        N  0.75347954  0.80653932  0.08909042    -0.27200
N970        N  0.76697020  0.80839111  0.09945654    -0.35100
C971        C  0.76143306  0.81239064  0.11548440     0.01100
C972        C  0.74359330  0.81279921  0.11541801     0.07100
C973        C  0.73894820  0.80920756  0.09840305    -0.06000
H974        H  0.76965886  0.81255226  0.12683009     0.07800
H975        H  0.72600253  0.80718037  0.09350539     0.09000
Cu976      Cu  0.79093963  0.79763499  0.09459249     0.44200
Cu977      Cu  0.75546015  0.79639861  0.06402848     0.42000
Cu978      Cu  0.78844023  0.76342380  0.06339105     0.43900
N979        N  0.80189247  0.77351570  0.09856262    -0.34600
N980        N  0.79958245  0.76030579  0.08780536    -0.28900
C981        C  0.80253039  0.74539114  0.09643690    -0.05000
C982        C  0.80682630  0.74948777  0.11344174     0.07200
C983        C  0.80647695  0.76742776  0.11420207     0.01000
H984        H  0.80016745  0.73254856  0.09118682     0.08700
H985        H  0.80707673  0.77531696  0.12583905     0.07800
N986        N  0.77493445  0.77110090  0.04127655    -0.36100
N987        N  0.76267315  0.78318943  0.04143829    -0.28300
C988        C  0.75640932  0.78506211  0.02523416    -0.03500
C989        C  0.76518856  0.77361490  0.01435451     0.05100
C990        C  0.77683517  0.76501377  0.02499707     0.03200
H991        H  0.74620127  0.79404778  0.02166175     0.08300
H992        H  0.78595948  0.75495573  0.02122348     0.07200
N993        N  0.73360821  0.92361721  0.78487973    -0.27200
N994        N  0.74817868  0.91635606  0.79019676    -0.35100
C995        C  0.74448237  0.90186203  0.79895184     0.01100
C996        C  0.72678861  0.89941403  0.79862863     0.07100
C997        C  0.72025599  0.91363080  0.78976715    -0.06000
H998        H  0.75400434  0.89190058  0.80183472     0.07800
H999        H  0.70723428  0.91506008  0.78480792     0.09000
Cu1000     Cu  0.77098725  0.91873017  0.77662276     0.44200
Cu1001     Cu  0.73359009  0.94345298  0.76696203     0.42000
Cu1002     Cu  0.76829745  0.94004210  0.73573962     0.43900
N1003       N  0.78228934  0.90880365  0.75438244    -0.34600
N1004       N  0.78012204  0.91575309  0.73890003    -0.28900
C1005       C  0.78522628  0.90408064  0.72679932    -0.05000
C1006       C  0.79084731  0.88910181  0.73515571     0.07200
C1007       C  0.78890510  0.89267625  0.75260747     0.01000
H1008       H  0.78429528  0.90608716  0.71296602     0.08700
H1009       H  0.79073878  0.88365105  0.76317098     0.07800
N1010       N  0.75492387  0.96319129  0.74095167    -0.36100
N1011       N  0.74194282  0.96401136  0.75210332    -0.28300
C1012       C  0.73717639  0.98067049  0.75439595    -0.03500
C1013       C  0.74768499  0.99097913  0.74434165     0.05100
C1014       C  0.75876367  0.97948787  0.73586845     0.03200
H1015       H  0.72748873  0.98500040  0.76360063     0.08300
H1016       H  0.76941619  0.98277934  0.72743427     0.07200
N1017       N  0.76674428  0.08613044  0.72050451    -0.27200
N1018       N  0.75334816  0.09690119  0.72010032    -0.35100
C1019       C  0.75875743  0.11289183  0.71605965     0.01100
C1020       C  0.77639071  0.11225842  0.71361743     0.07100
C1021       C  0.78114177  0.09506722  0.71637361    -0.06000
H1022       H  0.75055451  0.12435161  0.71578432     0.07800
H1023       H  0.79411507  0.08970125  0.71629475     0.09000
Cu1024     Cu  0.72900766  0.09122539  0.72909564     0.44200
Cu1025     Cu  0.76410018  0.06062460  0.72910701     0.42000
Cu1026     Cu  0.72826988  0.05911077  0.76065667     0.43900
N1027       N  0.71297444  0.09290969  0.75021772    -0.34600
N1028       N  0.71422495  0.08204527  0.76333316    -0.28900
C1029       C  0.70789915  0.08991062  0.77767383    -0.05000
C1030       C  0.70221590  0.10642828  0.77314106     0.07200
C1031       C  0.70562427  0.10777170  0.75566313     0.01000
H1032       H  0.70930805  0.08488293  0.79066799     0.08700
H1033       H  0.70558924  0.11968660  0.74825331     0.07800
N1034       N  0.74134316  0.03748752  0.75090196    -0.36100
N1035       N  0.75416419  0.03777548  0.73952005    -0.28300
C1036       C  0.75858088  0.02125486  0.73539469    -0.03500
C1037       C  0.74796144  0.01014568  0.74455271     0.05100
C1038       C  0.73726543  0.02089823  0.75423211     0.03200
H1039       H  0.76855288  0.01763230  0.72619786     0.08300
H1040       H  0.72700271  0.01699495  0.76287941     0.07200
N1041       N  0.92850779  0.78241323  0.74927048    -0.27200
N1042       N  0.91944945  0.78289083  0.76378884    -0.35100
C1043       C  0.90318950  0.78800817  0.76038845     0.01100
C1044       C  0.90147594  0.79054697  0.74275783     0.07100
C1045       C  0.91796653  0.78722968  0.73610223    -0.06000
H1046       H  0.89300357  0.78843146  0.76998439     0.07800
H1047       H  0.92161037  0.78697711  0.72256735     0.09000
Cu1048     Cu  0.92633020  0.76994314  0.78606573     0.44200
Cu1049     Cu  0.95391391  0.77221849  0.74902208     0.42000
Cu1050     Cu  0.95524695  0.73539013  0.77867639     0.43900
N1051       N  0.92278909  0.74581656  0.79693230    -0.34600
N1052       N  0.93224867  0.73212579  0.79254195    -0.28900
C1053       C  0.92340370  0.71760453  0.79662195    -0.05000
C1054       C  0.90778828  0.72255788  0.80420353     0.07200
C1055       C  0.90792116  0.74050619  0.80405079     0.01000
H1056       H  0.92724951  0.70456231  0.79286608     0.08700
H1057       H  0.89696337  0.74897923  0.80659134     0.07800
N1058       N  0.97729045  0.74639130  0.76750971    -0.36100
N1059       N  0.97706606  0.75976465  0.75674785    -0.28300
C1060       C  0.99359173  0.76433278  0.75331572    -0.03500
C1061       C  0.00469969  0.75342911  0.76246729     0.05100
C1062       C  0.99382891  0.74224844  0.77124589     0.03200
H1063       H  0.99724876  0.77518474  0.74526812     0.08300
H1064       H  0.99764988  0.73208740  0.78013070     0.07200
N1065       N  0.09525237  0.71971242  0.78288624    -0.27200
N1066       N  0.10246046  0.71386808  0.76845910    -0.35100
C1067       C  0.11744238  0.70588696  0.77218278     0.01100
C1068       C  0.12012334  0.70690206  0.78979288     0.07100
C1069       C  0.10585028  0.71589741  0.79629165    -0.06000
H1070       H  0.12689028  0.70190783  0.76257311     0.07800
H1071       H  0.10395852  0.72039318  0.80946732     0.09000
Cu1072     Cu  0.09739080  0.72473521  0.74479603     0.44200
Cu1073     Cu  0.07268105  0.73477725  0.78154009     0.42000
Cu1074     Cu  0.07528933  0.76529910  0.74601919     0.43900
N1075       N  0.10700725  0.74672457  0.73333179    -0.34600
N1076       N  0.09996325  0.76235902  0.73479914    -0.28900
C1077       C  0.11149432  0.77416484  0.72899632    -0.05000
C1078       C  0.12650890  0.76537688  0.72378996     0.07200
C1079       C  0.12298360  0.74804217  0.72676137     0.01000
H1080       H  0.10916927  0.78804651  0.72872380     0.08700
H1081       H  0.13182197  0.73716508  0.72523662     0.07800
N1082       N  0.05181127  0.75864121  0.75809015    -0.36100
N1083       N  0.05102630  0.74736111  0.77097592    -0.28300
C1084       C  0.03430006  0.74415696  0.77460493    -0.03500
C1085       C  0.02391894  0.75387500  0.76358727     0.05100
C1086       C  0.03550542  0.76298544  0.75334075     0.03200
H1087       H  0.03000927  0.73493148  0.78420105     0.08300
H1088       H  0.03231417  0.77151277  0.74268651     0.07200
C1089       C  0.83730278  0.69930102  0.81350113     0.86500
C1090       C  0.83153024  0.68031679  0.81299619    -0.53700
C1091       C  0.81415463  0.67802563  0.81536188     0.09500
C1092       C  0.80395736  0.69522209  0.81819827     0.20400
C1093       C  0.82574021  0.70843714  0.80002283    -0.54400
C1094       C  0.80827959  0.70672100  0.80240502     0.09600
C1095       C  0.83039668  0.70665420  0.83084281    -0.54000
C1096       C  0.81309744  0.70421817  0.83356532     0.10100
H1097       H  0.84045552  0.66957174  0.81072165     0.14700
H1098       H  0.78996716  0.69323149  0.82035494     0.00400
H1099       H  0.83085147  0.71658781  0.78987530     0.15000
H1100       H  0.83840213  0.71347581  0.84016913     0.14700
C1101       C  0.81729068  0.80274975  0.68061746     0.86500
C1102       C  0.83575315  0.80094553  0.68785531    -0.53700
C1103       C  0.83696523  0.80276463  0.70541940     0.09500
C1104       C  0.81939928  0.80664831  0.71428527     0.20400
C1105       C  0.80624294  0.78999940  0.69103781    -0.54400
C1106       C  0.80728809  0.79177832  0.70860828     0.09600
C1107       C  0.81143454  0.82083380  0.68724805    -0.54000
C1108       C  0.81241189  0.82294845  0.70486739     0.10100
H1109       H  0.84691757  0.79812036  0.67976086     0.14700
H1110       H  0.82028035  0.80805339  0.72856197     0.00400
H1111       H  0.79765799  0.78077999  0.68478291     0.15000
H1112       H  0.80739824  0.83146072  0.67902428     0.14700
C1113       C  0.70828077  0.82692893  0.80497742     0.86500
C1114       C  0.71210610  0.82164012  0.82376741    -0.53700
C1115       C  0.70943485  0.80448091  0.82720015     0.09500
C1116       C  0.70362941  0.79384515  0.81123337     0.20400
C1117       C  0.72000536  0.81458332  0.79428820    -0.54400
C1118       C  0.71758068  0.79733244  0.79734139     0.09600
C1119       C  0.68983972  0.82066131  0.80143256    -0.54000
C1120       C  0.68723826  0.80339949  0.80463123     0.10100
H1121       H  0.71608073  0.83082800  0.83370478     0.14700
H1122       H  0.70166325  0.77987557  0.81411244     0.00400
H1123       H  0.73007357  0.81869908  0.78550382     0.15000
H1124       H  0.67969991  0.82923744  0.79666608     0.14700
N1125       N  0.73208850  0.92179865  0.22771147    -0.27200
N1126       N  0.73173791  0.91643855  0.24394338    -0.35100
C1127       C  0.72564503  0.90015157  0.24452672     0.01100
C1128       C  0.72205175  0.89464702  0.22784270     0.07100
C1129       C  0.72602978  0.90886785  0.21747523    -0.06000
H1130       H  0.72482992  0.89256679  0.25625270     0.07800
H1131       H  0.72557077  0.90934261  0.20347452     0.09000
Cu1132     Cu  0.74474665  0.92834967  0.26399263     0.44200
Cu1133     Cu  0.74335708  0.94574896  0.22131381     0.42000
Cu1134     Cu  0.78111908  0.95059934  0.24890627     0.43900
N1135       N  0.76871036  0.92538822  0.27516674    -0.34600
N1136       N  0.78285312  0.93161793  0.26798473    -0.28900
C1137       C  0.79645707  0.92172536  0.27290149    -0.05000
C1138       C  0.79049703  0.90881898  0.28388504     0.07200
C1139       C  0.77288825  0.91168636  0.28500746     0.01000
H1140       H  0.80921027  0.92244059  0.26718445     0.08700
H1141       H  0.76351784  0.90254648  0.28991248     0.07800
N1142       N  0.77110327  0.97053265  0.23360729    -0.36100
N1143       N  0.75721546  0.96911897  0.22366594    -0.28300
C1144       C  0.75286685  0.98511373  0.21781085    -0.03500
C1145       C  0.76449474  0.99711538  0.22451738     0.05100
C1146       C  0.77586416  0.98731336  0.23436867     0.03200
H1147       H  0.74143319  0.98795970  0.21022712     0.08300
H1148       H  0.78621440  0.99216567  0.24245215     0.07200
N1149       N  0.76837649  0.08802155  0.26205085    -0.27200
N1150       N  0.75240526  0.09361879  0.26446893    -0.35100
C1151       C  0.75263710  0.10922100  0.27214883     0.01100
C1152       C  0.76959538  0.11378890  0.27557350     0.07100
C1153       C  0.77930816  0.09990938  0.26882188    -0.06000
H1154       H  0.74121189  0.11727373  0.27326324     0.07800
H1155       H  0.79324824  0.09894867  0.26802557     0.09000
Cu1156     Cu  0.73098304  0.08387047  0.25235436     0.44200
Cu1157     Cu  0.77275013  0.06597765  0.24669303     0.42000
Cu1158     Cu  0.74002889  0.06556897  0.21229433     0.43900
N1159       N  0.72008502  0.09350682  0.23026727    -0.34600
N1160       N  0.72502600  0.08831707  0.21470996    -0.28900
C1161       C  0.72066609  0.10081911  0.20321950    -0.05000
C1162       C  0.71268340  0.11448353  0.21220596     0.07200
C1163       C  0.71246468  0.10917620  0.22924973     0.01000
H1164       H  0.72388710  0.10041079  0.18958559     0.08700
H1165       H  0.70889849  0.11703994  0.24037948     0.07800
N1166       N  0.75467435  0.04362903  0.21956408    -0.36100
N1167       N  0.76683676  0.04407868  0.23165990    -0.28300
C1168       C  0.77263629  0.02779310  0.23448737    -0.03500
C1169       C  0.76362938  0.01639987  0.22390621     0.05100
C1170       C  0.75235062  0.02692029  0.21458658     0.03200
H1171       H  0.78192289  0.02437663  0.24440835     0.08300
H1172       H  0.74259133  0.02266052  0.20548895     0.07200
C1173       C  0.67973617  0.80251146  0.19777899     0.86500
C1174       C  0.68765200  0.80479616  0.17968486    -0.53700
C1175       C  0.70460444  0.80966551  0.17960360     0.09500
C1176       C  0.71202635  0.81249169  0.19795065     0.20400
C1177       C  0.69207641  0.79024854  0.20749133    -0.54400
C1178       C  0.70900896  0.79514657  0.20754514     0.09600
C1179       C  0.68256993  0.82048104  0.20637236    -0.54000
C1180       C  0.69944483  0.82576472  0.20633262     0.10100
H1181       H  0.68033550  0.80277879  0.16783854     0.14700
H1182       H  0.72572513  0.81662573  0.19799282     0.00400
H1183       H  0.68745425  0.77890484  0.21435599     0.15000
H1184       H  0.67237919  0.82892147  0.21121981     0.14700
C1185       C  0.21406559  0.79247458  0.67231725     0.86500
C1186       C  0.21519381  0.81136894  0.67862262    -0.53700
C1187       C  0.21162326  0.81369264  0.69585831     0.09500
C1188       C  0.20748921  0.79656983  0.70544696     0.20400
C1189       C  0.22631836  0.78222192  0.68442856    -0.54400
C1190       C  0.22311474  0.78454190  0.70171229     0.09600
C1191       C  0.19587029  0.78656415  0.67798394    -0.54000
C1192       C  0.19241402  0.78840029  0.69522500     0.10100
H1193       H  0.21901263  0.82192990  0.67018991     0.14700
H1194       H  0.20479291  0.79828494  0.71948912     0.00400
H1195       H  0.23668050  0.77381837  0.67975845     0.15000
H1196       H  0.18633283  0.78095222  0.66946908     0.14700
C1197       C  0.80020231  0.20297290  0.67312346     0.86500
C1198       C  0.79713362  0.18366115  0.67684792    -0.53700
C1199       C  0.80229405  0.17831634  0.69301869     0.09500
C1200       C  0.80953614  0.19330104  0.70434475     0.20400
C1201       C  0.79082748  0.21270302  0.68800108    -0.54400
C1202       C  0.79542529  0.20762977  0.70424308     0.09600
C1203       C  0.81940288  0.20589661  0.67722521    -0.54000
C1204       C  0.82435227  0.20068553  0.69333494     0.10100
H1205       H  0.79091514  0.17516009  0.66751350     0.14700
H1206       H  0.81375505  0.18949705  0.71754179     0.00400
H1207       H  0.78199541  0.22349143  0.68632868     0.15000
H1208       H  0.82832471  0.21201255  0.66828633     0.14700
C1209       C  0.69605215  0.17575556  0.80129706     0.86500
C1210       C  0.67860204  0.18520545  0.79950738    -0.53700
C1211       C  0.67885076  0.20219010  0.80467834     0.09500
C1212       C  0.69677094  0.20862462  0.81056098     0.20400
C1213       C  0.70831593  0.18712137  0.79037822    -0.54400
C1214       C  0.70882405  0.20430210  0.79514947     0.09600
C1215       C  0.70156706  0.17878678  0.81998223    -0.54000
C1216       C  0.70227304  0.19582575  0.82494489     0.10100
H1217       H  0.66720750  0.17969739  0.79352768     0.14700
H1218       H  0.69686616  0.22254310  0.81441270     0.00400
H1219       H  0.71580677  0.18203026  0.77955333     0.15000
H1220       H  0.70512527  0.16815118  0.82852483     0.14700
C1221       C  0.19276542  0.69506688  0.80561036     0.86500
C1222       C  0.19937541  0.69926238  0.82386086    -0.53700
C1223       C  0.21682501  0.69732171  0.82588935     0.09500
C1224       C  0.22632946  0.69150397  0.80925625     0.20400
C1225       C  0.20356793  0.70663276  0.79346496    -0.54400
C1226       C  0.22108659  0.70489551  0.79543352     0.09600
C1227       C  0.19976377  0.67653803  0.80184763    -0.54000
C1228       C  0.21723652  0.67459251  0.80379189     0.10100
H1229       H  0.19090809  0.70361345  0.83426949     0.14700
H1230       H  0.24055606  0.69025524  0.81074843     0.00400
H1231       H  0.19785352  0.71551785  0.78415173     0.15000
H1232       H  0.19204519  0.66567934  0.79758628     0.14700
C1233       C  0.80050200  0.67906103  0.19022608     0.86500
C1234       C  0.81861789  0.68124126  0.19839051    -0.53700
C1235       C  0.82411071  0.69811033  0.19990925     0.09500
C1236       C  0.81044722  0.71139112  0.19354843     0.20400
C1237       C  0.78858406  0.69042104  0.20149032    -0.54400
C1238       C  0.79388338  0.70716527  0.20410895     0.09600
C1239       C  0.80191482  0.68878213  0.17306788    -0.54000
C1240       C  0.80664839  0.70579250  0.17462464     0.10100
H1241       H  0.82683573  0.67059877  0.20239683     0.14700
H1242       H  0.81445986  0.72507658  0.19436433     0.00400
H1243       H  0.77661750  0.68533647  0.20661954     0.15000
H1244       H  0.79918278  0.68270742  0.16063581     0.14700
C1245       C  0.80735885  0.83709563  0.30055527     0.86500
C1246       C  0.82573444  0.82998380  0.29789875    -0.53700
C1247       C  0.82790082  0.81285992  0.30224702     0.09500
C1248       C  0.81117774  0.80431702  0.30895589     0.20400
C1249       C  0.79554944  0.82438426  0.29045261    -0.54400
C1250       C  0.79762894  0.80733566  0.29472364     0.09600
C1251       C  0.80304027  0.83312829  0.31964787    -0.54000
C1252       C  0.80519583  0.81603994  0.32412417     0.10100
H1253       H  0.83618331  0.83795551  0.29301085     0.14700
H1254       H  0.81251267  0.79036197  0.31231495     0.00400
H1255       H  0.78590852  0.82825144  0.28101629     0.15000
H1256       H  0.79787115  0.84276283  0.32862494     0.14700
C1257       C  0.32012221  0.79671931  0.83365869     0.86500
C1258       C  0.31378900  0.81538382  0.83128614    -0.53700
C1259       C  0.31254829  0.82056916  0.81443925     0.09500
C1260       C  0.31865098  0.80662433  0.80123661     0.20400
C1261       C  0.30820087  0.78554902  0.82200827    -0.54400
C1262       C  0.30724975  0.79073037  0.80510682     0.09600
C1263       C  0.33750930  0.79571762  0.82413098    -0.54000
C1264       C  0.33691580  0.80114615  0.80734692     0.10100
H1265       H  0.31013972  0.82368074  0.84214104     0.14700
H1266       H  0.31821481  0.81079368  0.78749340     0.00400
H1267       H  0.30142724  0.77412567  0.82654308     0.15000
H1268       H  0.34909608  0.78986556  0.82956448     0.14700
C1269       C  0.81013776  0.32206441  0.81193402     0.86500
C1270       C  0.82782121  0.31687833  0.80405793    -0.53700
C1271       C  0.83054250  0.29941118  0.80269852     0.09500
C1272       C  0.81538391  0.28839741  0.80928194     0.20400
C1273       C  0.79664115  0.31241137  0.80100243    -0.54400
C1274       C  0.79940620  0.29488673  0.79877918     0.09600
C1275       C  0.81005616  0.31257605  0.82929526    -0.54000
C1276       C  0.81268308  0.29498734  0.82816801     0.10100
H1277       H  0.83797046  0.32580691  0.80053731     0.14700
H1278       H  0.81814285  0.27426462  0.80832630     0.00400
H1279       H  0.78542964  0.31924508  0.79603358     0.15000
H1280       H  0.80784759  0.31925505  0.84152311     0.14700
C1281       C  0.67963662  0.30496111  0.70094397     0.86500
C1282       C  0.68856444  0.30426442  0.68321169    -0.53700
C1283       C  0.70597080  0.30771281  0.68342434     0.09500
C1284       C  0.71296086  0.31113277  0.70198670     0.20400
C1285       C  0.68997342  0.29229226  0.71241500    -0.54400
C1286       C  0.70732179  0.29531766  0.71287453     0.09600
C1287       C  0.68444743  0.32294168  0.70844385    -0.54000
C1288       C  0.70176280  0.32621635  0.70905740     0.10100
H1289       H  0.68147481  0.30151103  0.67137522     0.14700
H1290       H  0.72696051  0.31388002  0.70291372     0.00400
H1291       H  0.68408389  0.28181220  0.71967094     0.15000
H1292       H  0.67532128  0.33218692  0.71388686     0.14700
C1293       C  0.69983736  0.70841462  0.32735731     0.86500
C1294       C  0.70507451  0.68974431  0.32203404    -0.53700
C1295       C  0.70461145  0.68665906  0.30455337     0.09500
C1296       C  0.69911513  0.70268072  0.29388206     0.20400
C1297       C  0.71163669  0.72038151  0.31683983    -0.54400
C1298       C  0.71142566  0.71746847  0.29945266     0.09600
C1299       C  0.68183457  0.71103494  0.31889157    -0.54000
C1300       C  0.68133139  0.70752426  0.30152286     0.10100
H1301       H  0.70769524  0.67957612  0.33140688     0.14700
H1302       H  0.69899730  0.70019469  0.27969372     0.00400
H1303       H  0.71963049  0.73038440  0.32270316     0.15000
H1304       H  0.67024654  0.71520039  0.32556016     0.14700
C1305       C  0.19869210  0.16854445  0.69308290     0.86500
C1306       C  0.20485864  0.17326792  0.67477719    -0.53700
C1307       C  0.20418191  0.19070366  0.67134629     0.09500
C1308       C  0.19688628  0.20186762  0.68639765     0.20400
C1309       C  0.20988436  0.18001670  0.70485187    -0.54400
C1310       C  0.20886643  0.19759341  0.70201251     0.09600
C1311       C  0.18033031  0.17621123  0.69392727    -0.54000
C1312       C  0.17926096  0.19357937  0.69064992     0.10100
H1313       H  0.20964781  0.16409232  0.66520950     0.14700
H1314       H  0.19571888  0.21581340  0.68308399     0.00400
H1315       H  0.21894637  0.17401701  0.71368713     0.15000
H1316       H  0.16902643  0.16845544  0.69689522     0.14700
C1317       C  0.19965857  0.67727800  0.18942708     0.86500
C1318       C  0.20132805  0.68632223  0.17185368    -0.53700
C1319       C  0.19804733  0.70376268  0.17237915     0.09500
C1320       C  0.19268661  0.71065557  0.19046277     0.20400
C1321       C  0.21120870  0.68785724  0.20168885    -0.54400
C1322       C  0.20740555  0.70525049  0.20297758     0.09600
C1323       C  0.18095337  0.68177353  0.19517694    -0.54000
C1324       C  0.17729139  0.69918402  0.19562696     0.10100
H1325       H  0.20489797  0.67954420  0.15998156     0.14700
H1326       H  0.18937682  0.72468548  0.19034241     0.00400
H1327       H  0.22197665  0.68175144  0.20830206     0.15000
H1328       H  0.17099140  0.67242979  0.19803715     0.14700
C1329       C  0.19893688  0.32910788  0.78744692     0.86500
C1330       C  0.20391520  0.32320770  0.80564852    -0.53700
C1331       C  0.20195091  0.30583481  0.80869516     0.09500
C1332       C  0.19504278  0.29571485  0.79265880     0.20400
C1333       C  0.21041970  0.31731920  0.77591913    -0.54400
C1334       C  0.20812374  0.29976500  0.77792647     0.09600
C1335       C  0.18047156  0.32274117  0.78473642    -0.54000
C1336       C  0.17828143  0.30536786  0.78738976     0.10100
H1337       H  0.20905146  0.33208294  0.81531327     0.14700
H1338       H  0.19289926  0.28173460  0.79505919     0.00400
H1339       H  0.22078793  0.32248394  0.76814959     0.15000
H1340       H  0.16999766  0.33128877  0.78067142     0.14700
C1341       C  0.32730980  0.19593385  0.79413196     0.86500
C1342       C  0.32027009  0.17755787  0.79149544    -0.53700
C1343       C  0.30301233  0.17559567  0.79518947     0.09500
C1344       C  0.29431909  0.19286277  0.80150741     0.20400
C1345       C  0.31519036  0.20777182  0.78347127    -0.54400
C1346       C  0.29802166  0.20621182  0.78702713     0.09600
C1347       C  0.32273693  0.20068161  0.81290997    -0.54000
C1348       C  0.30572010  0.19879951  0.81697784     0.10100
H1349       H  0.32855242  0.16688873  0.78727379     0.14700
H1350       H  0.28034044  0.19198754  0.80447708     0.00400
H1351       H  0.31945102  0.21722542  0.77407699     0.15000
H1352       H  0.33210047  0.20557398  0.82219769     0.14700
C1353       C  0.68516595  0.20717840  0.17059888     0.86500
C1354       C  0.66732683  0.20763123  0.17905392    -0.53700
C1355       C  0.66740194  0.20374303  0.19630066     0.09500
C1356       C  0.68560467  0.19944959  0.20363557     0.20400
C1357       C  0.69613993  0.21946017  0.18196570    -0.54400
C1358       C  0.69710722  0.21529435  0.19918157     0.09600
C1359       C  0.69272960  0.18904013  0.17473466    -0.54000
C1360       C  0.69239851  0.18462764  0.19185324     0.10100
H1361       H  0.65564989  0.21118273  0.17205121     0.14700
H1362       H  0.68561378  0.19597843  0.21754712     0.00400
H1363       H  0.70262561  0.23063543  0.17677494     0.15000
H1364       H  0.69788345  0.18025599  0.16495365     0.14700
N1365       N  0.91364705  0.27461886  0.22304653    -0.27200
N1366       N  0.90424414  0.26151765  0.21729658    -0.35100
C1367       C  0.88981857  0.26772275  0.20990619     0.01100
C1368       C  0.88992688  0.28559655  0.21115378     0.07100
C1369       C  0.90516214  0.28964669  0.21971905    -0.06000
H1370       H  0.87901772  0.25976363  0.20591731     0.07800
H1371       H  0.90922200  0.30236397  0.22411801     0.09000
Cu1372     Cu  0.90666903  0.23662379  0.22656320     0.44200
Cu1373     Cu  0.93638452  0.26996976  0.23673676     0.42000
Cu1374     Cu  0.93272988  0.23235074  0.26418060     0.43900
N1375       N  0.89815002  0.22436824  0.24856082    -0.34600
N1376       N  0.90681016  0.22426806  0.26331849    -0.28900
C1377       C  0.89579877  0.21984154  0.27615797    -0.05000
C1378       C  0.87956437  0.21683687  0.26894801     0.07200
C1379       C  0.88165155  0.21993619  0.25147141     0.01000
H1380       H  0.89914379  0.21948941  0.28976306     0.08700
H1381       H  0.87152705  0.22052880  0.24180639     0.07800
N1382       N  0.95665422  0.24284125  0.25670072    -0.36100
N1383       N  0.95774607  0.25677996  0.24677357    -0.28300
C1384       C  0.97443177  0.25947991  0.24267220    -0.03500
C1385       C  0.98447716  0.24667450  0.25032028     0.05100
C1386       C  0.97276039  0.23635806  0.25918656     0.03200
H1387       H  0.97883552  0.26961693  0.23409765     0.08300
H1388       H  0.97564897  0.22457901  0.26626006     0.07200
N1389       N  0.07654271  0.20629097  0.25421262    -0.27200
N1390       N  0.08472374  0.20320603  0.23949534    -0.35100
C1391       C  0.10083337  0.19767121  0.24289013     0.01100
C1392       C  0.10348449  0.19783942  0.26068042     0.07100
C1393       C  0.08756077  0.20323033  0.26742324    -0.06000
H1394       H  0.11051868  0.19598155  0.23291789     0.07800
H1395       H  0.08474574  0.20675958  0.28069726     0.09000
Cu1396     Cu  0.07896154  0.21618973  0.21696930     0.44200
Cu1397     Cu  0.05234102  0.21861666  0.25485176     0.42000
Cu1398     Cu  0.05234279  0.25372345  0.22442567     0.43900
N1399       N  0.08543896  0.24067917  0.20840397    -0.34600
N1400       N  0.07632412  0.25486353  0.21195471    -0.28900
C1401       C  0.08612374  0.26889386  0.20850930    -0.05000
C1402       C  0.10228672  0.26317635  0.20293454     0.07200
C1403       C  0.10122902  0.24522635  0.20284174     0.01000
H1404       H  0.08225825  0.28220534  0.21111245     0.08700
H1405       H  0.11156610  0.23606825  0.20008161     0.07800
N1406       N  0.03032176  0.24645629  0.23832406    -0.36100
N1407       N  0.03017123  0.23336533  0.24938547    -0.28300
C1408       C  0.01393663  0.23143753  0.25551619    -0.03500
C1409       C  0.00337457  0.24398623  0.24802854     0.05100
C1410       C  0.01425546  0.25325276  0.23722563     0.03200
H1411       H  0.01007674  0.22152299  0.26460104     0.08300
H1412       H  0.01068827  0.26395413  0.22888076     0.07200
C1413       C  0.79148456  0.20212388  0.32584770     0.86500
C1414       C  0.80975100  0.20740383  0.31981146    -0.53700
C1415       C  0.81267297  0.20547420  0.30229462     0.09500
C1416       C  0.79685688  0.19764288  0.29257128     0.20400
C1417       C  0.77911765  0.21243202  0.31409723    -0.54400
C1418       C  0.78183388  0.21022120  0.29678656     0.09600
C1419       C  0.79036391  0.18317978  0.31976391    -0.54000
C1420       C  0.79269024  0.18069741  0.30242121     0.10100
H1421       H  0.81993680  0.21087244  0.32873442     0.14700
H1422       H  0.79848583  0.19576515  0.27841725     0.00400
H1423       H  0.76924027  0.22122108  0.31914353     0.15000
H1424       H  0.78715333  0.17253140  0.32835488     0.14700
C1425       C  0.81982966  0.30799116  0.19961569     0.86500
C1426       C  0.81330651  0.32653041  0.20318377    -0.53700
C1427       C  0.79588643  0.32874889  0.20109567     0.09500
C1428       C  0.78634356  0.31199184  0.19573872     0.20400
C1429       C  0.80885443  0.29619713  0.21130250    -0.54400
C1430       C  0.79138186  0.29841035  0.20962867     0.09600
C1431       C  0.81309406  0.30367275  0.18125418    -0.54000
C1432       C  0.79568605  0.30583258  0.17911245     0.10100
H1433       H  0.82190903  0.33717673  0.20642282     0.14700
H1434       H  0.77218216  0.31382811  0.19409020     0.00400
H1435       H  0.81445099  0.28682172  0.22020243     0.15000
H1436       H  0.82092357  0.29848548  0.17079324     0.14700
C1437       C  0.19315283  0.80053051  0.32421493     0.86500
C1438       C  0.17514497  0.79781885  0.31645367    -0.53700
C1439       C  0.17392251  0.80219863  0.29933359     0.09500
C1440       C  0.19103367  0.80853179  0.29127546     0.20400
C1441       C  0.20556191  0.79018643  0.31232431    -0.54400
C1442       C  0.20429443  0.79392606  0.29509671     0.09600
C1443       C  0.19741919  0.81961233  0.32011154    -0.54000
C1444       C  0.19658854  0.82379157  0.30298210     0.10100
H1445       H  0.16431205  0.79285876  0.32385339     0.14700
H1446       H  0.18994107  0.81192155  0.27735288     0.00400
H1447       H  0.21465038  0.78052838  0.31716155     0.15000
H1448       H  0.20172116  0.82912929  0.32950177     0.14700
C1449       C  0.32866249  0.80234438  0.20102770     0.86500
C1450       C  0.32288605  0.82087535  0.20613916    -0.53700
C1451       C  0.30591432  0.82444020  0.20278311     0.09500
C1452       C  0.29591219  0.80897940  0.19509945     0.20400
C1453       C  0.31595627  0.79075738  0.21116230    -0.54400
C1454       C  0.29895514  0.79407162  0.20795074     0.09600
C1455       C  0.32339929  0.80033677  0.18197610    -0.54000
C1456       C  0.30631264  0.80386934  0.17874643     0.10100
H1457       H  0.33132990  0.83032237  0.21225259     0.14700
H1458       H  0.28197322  0.81167327  0.19285201     0.00400
H1459       H  0.31968455  0.78127961  0.22083275     0.15000
H1460       H  0.33251813  0.79663401  0.17188192     0.14700
C1461       C  0.30533580  0.67335647  0.29171373     0.86500
C1462       C  0.30257859  0.67817050  0.31091979    -0.53700
C1463       C  0.30496569  0.69541277  0.31461886     0.09500
C1464       C  0.30969081  0.70641764  0.29875800     0.20400
C1465       C  0.29336861  0.68571276  0.28154092    -0.54400
C1466       C  0.29534717  0.70293986  0.28538926     0.09600
C1467       C  0.32371121  0.68024245  0.28771271    -0.54000
C1468       C  0.32601550  0.69744712  0.29147737     0.10100
H1469       H  0.29992642  0.66856545  0.32081760     0.14700
H1470       H  0.31143687  0.72041839  0.30182628     0.00400
H1471       H  0.28399895  0.68117488  0.27207986     0.15000
H1472       H  0.33434968  0.67267246  0.28253729     0.14700
C1473       C  0.68601885  0.33234720  0.29787243     0.86500
C1474       C  0.69024585  0.32842519  0.31691456    -0.53700
C1475       C  0.68936587  0.31126087  0.32129981     0.09500
C1476       C  0.68416455  0.29934215  0.30592579     0.20400
C1477       C  0.69803966  0.32044008  0.28719810    -0.54400
C1478       C  0.69719963  0.30320511  0.29122419     0.09600
C1479       C  0.66791478  0.32430017  0.29526412    -0.54000
C1480       C  0.66687068  0.30708565  0.29941395     0.10100
H1481       H  0.69335998  0.33853501  0.32627021     0.14700
H1482       H  0.68347587  0.28539634  0.30939568     0.00400
H1483       H  0.70638726  0.32529353  0.27700505     0.15000
H1484       H  0.65659566  0.33114421  0.29065656     0.14700
C1485       C  0.33421129  0.30124602  0.69743689     0.86500
C1486       C  0.32632206  0.31943007  0.70108476    -0.53700
C1487       C  0.30945290  0.32118830  0.69619707     0.09500
C1488       C  0.30169530  0.30460727  0.68825435     0.20400
C1489       C  0.32187843  0.28864041  0.70654040    -0.54400
C1490       C  0.30495975  0.29015672  0.70178569     0.09600
C1491       C  0.33092300  0.29854174  0.67794539    -0.54000
C1492       C  0.31400913  0.30053350  0.67292702     0.10100
H1493       H  0.33304940  0.33038772  0.70664555     0.14700
H1494       H  0.28788490  0.30623169  0.68464500     0.00400
H1495       H  0.32618308  0.27941814  0.71627920     0.15000
H1496       H  0.34122165  0.29514591  0.66898014     0.14700
C1497       C  0.19089278  0.20535106  0.31951223     0.86500
C1498       C  0.19644978  0.18635396  0.31620852    -0.53700
C1499       C  0.19572497  0.18133676  0.29925732     0.09500
C1500       C  0.18929218  0.19567787  0.28698489     0.20400
C1501       C  0.20208940  0.21628151  0.30720930    -0.54400
C1502       C  0.20122365  0.21135384  0.29022225     0.09600
C1503       C  0.17253615  0.20639021  0.31137710    -0.54000
C1504       C  0.17148457  0.20102996  0.29439139     0.10100
H1505       H  0.20069356  0.17766180  0.32642866     0.14700
H1506       H  0.18926801  0.19112076  0.27341529     0.00400
H1507       H  0.20989518  0.22715519  0.31156564     0.15000
H1508       H  0.16109496  0.21067755  0.31819036     0.14700
C1509       C  0.31801402  0.19926437  0.18532814     0.86500
C1510       C  0.31189788  0.20482824  0.16716979    -0.53700
C1511       C  0.29471229  0.20215936  0.16410247     0.09500
C1512       C  0.28490711  0.19450916  0.17968732     0.20400
C1513       C  0.30585293  0.20978762  0.19745072    -0.54400
C1514       C  0.28862177  0.20719382  0.19469826     0.09600
C1515       C  0.31224753  0.18036647  0.18715098    -0.54000
C1516       C  0.29498686  0.17769902  0.18429792     0.10100
H1517       H  0.32009260  0.21127302  0.15780569     0.14700
H1518       H  0.27086169  0.19275182  0.17736030     0.00400
H1519       H  0.31031461  0.21920986  0.20693801     0.15000
H1520       H  0.32114821  0.16996476  0.19063175     0.14700
C1521       C  0.18612812  0.30843792  0.16312488     0.86500
C1522       C  0.18688257  0.32627108  0.17227988    -0.53700
C1523       C  0.18292330  0.32588966  0.18956408     0.09500
C1524       C  0.17838001  0.30747648  0.19618092     0.20400
C1525       C  0.19818452  0.29694395  0.17408885    -0.54400
C1526       C  0.19420566  0.29592461  0.19140796     0.09600
C1527       C  0.16775106  0.30204709  0.16698529    -0.54000
C1528       C  0.16376085  0.30128093  0.18415835     0.10100
H1529       H  0.18999143  0.33840670  0.16602960     0.14700
H1530       H  0.17442237  0.30702989  0.20990113     0.00400
H1531       H  0.20914776  0.29022431  0.16827902     0.15000
H1532       H  0.15886906  0.29773425  0.15696519     0.14700
C1533       C  0.31343281  0.30331497  0.29022131     0.86500
C1534       C  0.30902381  0.29783420  0.30895451    -0.53700
C1535       C  0.29172713  0.29800285  0.31267852     0.09500
C1536       C  0.28029481  0.30358562  0.29726309     0.20400
C1537       C  0.30269136  0.29128369  0.27868394    -0.54400
C1538       C  0.28545415  0.29133480  0.28213944     0.09600
C1539       C  0.30470463  0.32131102  0.28868262    -0.54000
C1540       C  0.28730230  0.32170199  0.29232577     0.10100
H1541       H  0.31844073  0.29506001  0.31894632     0.14700
H1542       H  0.26642062  0.30334269  0.30055568     0.00400
H1543       H  0.30828338  0.28361736  0.26818796     0.15000
H1544       H  0.31192020  0.33280839  0.28513252     0.14700
C1545       C  0.12077759  0.19741089  0.26951305    -0.00100
C1546       C  0.13567058  0.20070057  0.25961915    -0.12000
C1547       C  0.15219588  0.20131370  0.26699131     0.02100
C1548       C  0.15435663  0.19919262  0.28511583    -0.00200
C1549       C  0.13947789  0.19514929  0.29491844    -0.11900
C1550       C  0.12294859  0.19421713  0.28739417     0.02000
H1551       H  0.13458200  0.20316668  0.24587719     0.15000
H1552       H  0.14068484  0.19235718  0.30861087     0.15000
C1553       C  0.10865536  0.18946484  0.29838246     0.36700
C1554       C  0.16625501  0.20392929  0.25505376     0.36600
N1555       N  0.09729117  0.18565555  0.30732836    -0.43700
N1556       N  0.17699232  0.20544308  0.24472855    -0.43700
C1557       C  0.11793887  0.27378781  0.19959806    -0.00100
C1558       C  0.11641698  0.28881923  0.18943357    -0.12000
C1559       C  0.13109305  0.29835976  0.18473400     0.02100
C1560       C  0.14763867  0.29301513  0.19043514    -0.00200
C1561       C  0.14906451  0.27863968  0.20143291    -0.11900
C1562       C  0.13446270  0.26898832  0.20600692     0.02000
H1563       H  0.10379411  0.29283114  0.18472857     0.15000
H1564       H  0.16172600  0.27459343  0.20603229     0.15000
C1565       C  0.13685410  0.25447471  0.21759447     0.36700
C1566       C  0.12886288  0.31372716  0.17427967     0.36600
N1567       N  0.13887949  0.24287881  0.22690097    -0.43700
N1568       N  0.12711591  0.32609687  0.16596337    -0.43700
C1569       C  0.83946509  0.30602853  0.20257620    -0.00100
C1570       C  0.85097687  0.30368534  0.18850972    -0.12000
C1571       C  0.86820993  0.29871514  0.19115782     0.02100
C1572       C  0.87450542  0.29649888  0.20805759    -0.00200
C1573       C  0.86399862  0.30122583  0.22210750    -0.11900
C1574       C  0.84671270  0.30628364  0.21952040     0.02000
H1575       H  0.84679471  0.30544837  0.17530461     0.15000
H1576       H  0.86894367  0.29983547  0.23518676     0.15000
C1577       C  0.83658944  0.31078646  0.23463565     0.36700
C1578       C  0.87915359  0.29539186  0.17631748     0.36600
N1579       N  0.82856887  0.31426822  0.24684585    -0.43700
N1580       N  0.88799883  0.29279955  0.16447095    -0.43700
C1581       C  0.82980411  0.20926919  0.29375321    -0.00100
C1582       C  0.83462192  0.19958694  0.27899842    -0.12000
C1583       C  0.85079986  0.20155627  0.27111082     0.02100
C1584       C  0.86277591  0.21362505  0.27778452    -0.00200
C1585       C  0.85796583  0.22377525  0.29217782    -0.11900
C1586       C  0.84159322  0.22202069  0.29994068     0.02000
H1587       H  0.82588294  0.19015332  0.27354818     0.15000
H1588       H  0.86677829  0.23361709  0.29695742     0.15000
C1589       C  0.83698470  0.23440481  0.31332507     0.36700
C1590       C  0.85496171  0.19053549  0.25645689     0.36600
N1591       N  0.83336593  0.24439497  0.32402497    -0.43700
N1592       N  0.85825205  0.18166743  0.24473171    -0.43700
C1593       C  0.77568965  0.13090435  0.28259058    -0.00100
C1594       C  0.79278179  0.13636617  0.27942901    -0.12000
C1595       C  0.79879843  0.15253228  0.28553938     0.02100
C1596       C  0.78740366  0.16394654  0.29432400    -0.00200
C1597       C  0.77047392  0.15850760  0.29748533    -0.11900
C1598       C  0.76468825  0.14215740  0.29230411     0.02000
H1599       H  0.80163351  0.12791752  0.27241700     0.15000
H1600       H  0.76173413  0.16705910  0.30451468     0.15000
C1601       C  0.74772881  0.13724975  0.29830197     0.36700
C1602       C  0.81696199  0.15625091  0.28386114     0.36600
N1603       N  0.73411578  0.13359644  0.30329851    -0.43700
N1604       N  0.83169377  0.15851506  0.28263956    -0.43700
C1605       C  0.70762814  0.13221491  0.20628273    -0.00100
C1606       C  0.69277767  0.13994049  0.21355600    -0.12000
C1607       C  0.68777988  0.15700088  0.20947973     0.02100
C1608       C  0.69780031  0.16689889  0.19783536    -0.00200
C1609       C  0.71283089  0.15922767  0.19074544    -0.11900
C1610       C  0.71783474  0.14214755  0.19489111     0.02000
H1611       H  0.68490513  0.13250921  0.22245600     0.15000
H1612       H  0.72085549  0.16670449  0.18203384     0.15000
C1613       C  0.73397699  0.13558401  0.18801578     0.36700
C1614       C  0.67197591  0.16351470  0.21712477     0.36600
N1615       N  0.74698589  0.13042910  0.18254201    -0.43700
N1616       N  0.65929979  0.16823219  0.22365332    -0.43700
C1617       C  0.79826485  0.89143430  0.28641913    -0.00100
C1618       C  0.80693285  0.88758888  0.30184047    -0.12000
C1619       C  0.81120393  0.87031896  0.30605397     0.02100
C1620       C  0.80561774  0.85636689  0.29528501    -0.00200
C1621       C  0.79886749  0.86074307  0.27884778    -0.11900
C1622       C  0.79503529  0.87796318  0.27447937     0.02000
H1623       H  0.81008198  0.89805600  0.31075444     0.15000
H1624       H  0.79652724  0.85085509  0.26914793     0.15000
C1625       C  0.78730783  0.88149536  0.25780115     0.36700
C1626       C  0.82172178  0.86757364  0.32121732     0.36600
N1627       N  0.78115297  0.88441539  0.24445107    -0.43700
N1628       N  0.83043334  0.86584708  0.33327401    -0.43700
C1629       C  0.71657921  0.87687556  0.22233997    -0.00100
C1630       C  0.70424463  0.87512774  0.20908832    -0.12000
C1631       C  0.69826503  0.85866957  0.20393794     0.02100
C1632       C  0.70479603  0.84349325  0.21195070    -0.00200
C1633       C  0.71722251  0.84519038  0.22501458    -0.11900
C1634       C  0.72318924  0.86158266  0.23023467     0.02000
H1635       H  0.69911979  0.88666956  0.20284714     0.15000
H1636       H  0.72222603  0.83366334  0.23129086     0.15000
C1637       C  0.73661079  0.86208121  0.24323603     0.36700
C1638       C  0.68590245  0.85763988  0.18995807     0.36600
N1639       N  0.74734208  0.86223984  0.25369166    -0.43700
N1640       N  0.67599639  0.85674147  0.17875296    -0.43700
C1641       C  0.17302369  0.69794230  0.80400164    -0.00100
C1642       C  0.16161745  0.68385744  0.80136079    -0.12000
C1643       C  0.14400003  0.68653018  0.79809042     0.02100
C1644       C  0.13709254  0.70346424  0.79792691    -0.00200
C1645       C  0.14780740  0.71745450  0.80223809    -0.11900
C1646       C  0.16554432  0.71486314  0.80540005     0.02000
H1647       H  0.16602842  0.67056214  0.80171279     0.15000
H1648       H  0.14251601  0.73056028  0.80216489     0.15000
C1649       C  0.17581725  0.72995638  0.80951995     0.36700
C1650       C  0.13322301  0.67163792  0.79456644     0.36600
N1651       N  0.18406715  0.74204130  0.81280025    -0.43700
N1652       N  0.12458029  0.65971419  0.79177784    -0.43700
C1653       C  0.14315605  0.77208077  0.71666090    -0.00100
C1654       C  0.15210937  0.76152363  0.70470722    -0.12000
C1655       C  0.16821451  0.76628870  0.69808005     0.02100
C1656       C  0.17574083  0.78234145  0.70297424    -0.00200
C1657       C  0.16701728  0.79281801  0.71519156    -0.11900
C1658       C  0.15093391  0.78780341  0.72212028     0.02000
H1659       H  0.14657320  0.74925932  0.70057620     0.15000
H1660       H  0.17273372  0.80500602  0.71929280     0.15000
C1661       C  0.14324832  0.79857265  0.73544151     0.36700
C1662       C  0.17713573  0.75380591  0.68714232     0.36600
N1663       N  0.13723408  0.80721233  0.74622322    -0.43700
N1664       N  0.18426548  0.74376984  0.67842766    -0.43700
C1665       C  0.88493770  0.79346289  0.73311908    -0.00100
C1666       C  0.88467736  0.80476805  0.71888086    -0.12000
C1667       C  0.86923461  0.80827023  0.70985812     0.02100
C1668       C  0.85359817  0.80027795  0.71496623    -0.00200
C1669       C  0.85386038  0.78897703  0.72912653    -0.11900
C1670       C  0.86925672  0.78534851  0.73805005     0.02000
H1671       H  0.89651731  0.81114658  0.71498609     0.15000
H1672       H  0.84203333  0.78249370  0.73291863     0.15000
C1673       C  0.86860279  0.77242585  0.75154037     0.36700
C1674       C  0.86968442  0.82061794  0.69583795     0.36600
N1675       N  0.86796760  0.76202466  0.76230654    -0.43700
N1676       N  0.87003532  0.83050250  0.68458636    -0.43700
C1677       C  0.89169188  0.71234236  0.80550958    -0.00100
C1678       C  0.88638721  0.70595497  0.82161190    -0.12000
C1679       C  0.86936804  0.70007061  0.82412055     0.02100
C1680       C  0.85696666  0.70156331  0.81057279    -0.00200
C1681       C  0.86328032  0.70563186  0.79389848    -0.11900
C1682       C  0.88023879  0.71134734  0.79138763     0.02000
H1683       H  0.89537281  0.70611976  0.83240378     0.15000
H1684       H  0.85498441  0.70476716  0.78265667     0.15000
C1685       C  0.88531438  0.71708921  0.77434167     0.36700
C1686       C  0.86514505  0.69259803  0.84069956     0.36600
N1687       N  0.88937850  0.72175778  0.76071312    -0.43700
N1688       N  0.86182164  0.68661006  0.85400963    -0.43700
C1689       C  0.78732888  0.12746740  0.71008005    -0.00100
C1690       C  0.79467215  0.12923637  0.69363189    -0.12000
C1691       C  0.80103764  0.14534194  0.68816079     0.02100
C1692       C  0.79992491  0.16007148  0.69928597    -0.00200
C1693       C  0.79490563  0.15744709  0.71655727    -0.11900
C1694       C  0.78818224  0.14148111  0.72188381     0.02000
H1695       H  0.79450409  0.11830466  0.68468557     0.15000
H1696       H  0.79503741  0.16815318  0.72569431     0.15000
C1697       C  0.78145495  0.14002874  0.73927632     0.36700
C1698       C  0.80874892  0.14617057  0.67116918     0.36600
N1699       N  0.77601789  0.13891153  0.75319525    -0.43700
N1700       N  0.81492014  0.14653095  0.65751982    -0.43700
C1701       C  0.70094565  0.12181005  0.78448302    -0.00100
C1702       C  0.68466545  0.12794506  0.78960519    -0.12000
C1703       C  0.68264414  0.14480366  0.79640737     0.02100
C1704       C  0.69699644  0.15632244  0.79670959    -0.00200
C1705       C  0.71355363  0.14908007  0.79375503    -0.11900
C1706       C  0.71560762  0.13207961  0.78763890     0.02000
H1707       H  0.67347296  0.11965285  0.78800470     0.15000
H1708       H  0.72499449  0.15693898  0.79568351     0.15000
C1709       C  0.73284574  0.12567879  0.78396471     0.36700
C1710       C  0.66610527  0.14907297  0.80402720     0.36600
N1711       N  0.74664472  0.12048939  0.78109276    -0.43700
N1712       N  0.65280574  0.15220771  0.81023850    -0.43700
C1713       C  0.71916288  0.88193280  0.79835232    -0.00100
C1714       C  0.70806963  0.87674438  0.81163014    -0.12000
C1715       C  0.70325302  0.85924554  0.81315042     0.02100
C1716       C  0.71037993  0.84648982  0.80172517    -0.00200
C1717       C  0.71958786  0.85240726  0.78715805    -0.11900
C1718       C  0.72411380  0.86982610  0.78549132     0.02000
H1719       H  0.70360195  0.88624067  0.82109461     0.15000
H1720       H  0.72336953  0.84367360  0.77683003     0.15000
C1721       C  0.73423293  0.87490058  0.77059945     0.36700
C1722       C  0.69116190  0.85478667  0.82665973     0.36600
N1723       N  0.74236224  0.87897124  0.75871464    -0.43700
N1724       N  0.68142990  0.85121971  0.83744799    -0.43700
C1725       C  0.79601372  0.87208987  0.72747300    -0.00100
C1726       C  0.81069943  0.86349028  0.73398972    -0.12000
C1727       C  0.81623367  0.84744658  0.72709893     0.02100
C1728       C  0.80677471  0.83950049  0.71354111    -0.00200
C1729       C  0.79170768  0.84788995  0.70749774    -0.11900
C1730       C  0.78631423  0.86398666  0.71426068     0.02000
H1731       H  0.81813683  0.86955867  0.74426587     0.15000
H1732       H  0.78399925  0.84178202  0.69745426     0.15000
C1733       C  0.77034916  0.87146665  0.70794391     0.36700
C1734       C  0.83208425  0.84001991  0.73371577     0.36600
N1735       N  0.75750385  0.87737516  0.70290160    -0.43700
N1736       N  0.84478788  0.83422992  0.73922677    -0.43700
C1737       C  0.80696034  0.73787281  0.12871034    -0.00100
C1738       C  0.82031290  0.73947828  0.14093528    -0.12000
C1739       C  0.82058105  0.72932174  0.15601103     0.02100
C1740       C  0.80706627  0.71745917  0.15921437    -0.00200
C1741       C  0.79354672  0.71618556  0.14707602    -0.11900
C1742       C  0.79337290  0.72618177  0.13198851     0.02000
H1743       H  0.83069233  0.74859361  0.13858174     0.15000
H1744       H  0.78285791  0.70747008  0.14950153     0.15000
C1745       C  0.77858179  0.72484367  0.12063893     0.36700
C1746       C  0.83523789  0.73093926  0.16745817     0.36600
N1747       N  0.76666243  0.72377686  0.11163081    -0.43700
N1748       N  0.84709584  0.73245213  0.17647849    -0.43700
C1749       C  0.73264580  0.81252244  0.13116459    -0.00100
C1750       C  0.73552102  0.82504335  0.14411896    -0.12000
C1751       C  0.72653173  0.82461726  0.15989634     0.02100
C1752       C  0.71458354  0.81115307  0.16310800    -0.00200
C1753       C  0.71182526  0.79858588  0.15008470    -0.11900
C1754       C  0.72062193  0.79916952  0.13426079     0.02000
H1755       H  0.74483696  0.83527579  0.14184932     0.15000
H1756       H  0.70299535  0.78795426  0.15239878     0.15000
C1757       C  0.71775700  0.78529112  0.12193001     0.36700
C1758       C  0.72959421  0.83851648  0.17211404     0.36600
N1759       N  0.71541642  0.77411193  0.11212105    -0.43700
N1760       N  0.73242210  0.84980995  0.18164959    -0.43700
C1761       C  0.78821089  0.71517261  0.88281672    -0.00100
C1762       C  0.77985182  0.71938347  0.86719920    -0.12000
C1763       C  0.78778093  0.71647553  0.85112279     0.02100
C1764       C  0.80446603  0.70889238  0.85031586    -0.00200
C1765       C  0.81301814  0.70504957  0.86597223    -0.11900
C1766       C  0.80512991  0.70818139  0.88208791     0.02000
H1767       H  0.76709192  0.72532058  0.86749679     0.15000
H1768       H  0.82577678  0.69910825  0.86563984     0.15000
C1769       C  0.81445769  0.70344105  0.89757736     0.36700
C1770       C  0.77860851  0.72220250  0.83588722     0.36600
N1771       N  0.82199927  0.69968150  0.90997468    -0.43700
N1772       N  0.77084268  0.72704630  0.82402057    -0.43700
C1773       C  0.71103108  0.78542344  0.87967453    -0.00100
C1774       C  0.72512008  0.79463814  0.87299392    -0.12000
C1775       C  0.72507431  0.80055224  0.85584542     0.02100
C1776       C  0.71061912  0.79741863  0.84507229    -0.00200
C1777       C  0.69651797  0.78822588  0.85177771    -0.11900
C1778       C  0.69661171  0.78226097  0.86892874     0.02000
H1779       H  0.73644536  0.79671323  0.88102167     0.15000
H1780       H  0.68524340  0.78602207  0.84371134     0.15000
C1781       C  0.68153502  0.77344901  0.87543326     0.36700
C1782       C  0.74036022  0.80904006  0.84937274     0.36600
N1783       N  0.66939933  0.76650891  0.88070256    -0.43700
N1784       N  0.75261404  0.81580844  0.84415169    -0.43700
C1785       C  0.12776402  0.28770266  0.77298790    -0.00100
C1786       C  0.14247088  0.27919104  0.76639347    -0.12000
C1787       C  0.15908132  0.28369859  0.77189205     0.02100
C1788       C  0.16121175  0.29709233  0.78428305    -0.00200
C1789       C  0.14637686  0.30463575  0.79191128    -0.11900
C1790       C  0.12971170  0.29998137  0.78642910     0.02000
H1791       H  0.14100211  0.26953938  0.75619204     0.15000
H1792       H  0.14785351  0.31484667  0.80154327     0.15000
C1793       C  0.11495001  0.30894265  0.79376686     0.36700
C1794       C  0.17345479  0.27537544  0.76322292     0.36600
N1795       N  0.10310849  0.31612700  0.79964926    -0.43700
N1796       N  0.18440429  0.26826724  0.75575035    -0.43700
C1797       C  0.16232894  0.20300418  0.69073074    -0.00100
C1798       C  0.14806545  0.19551119  0.68220805    -0.12000
C1799       C  0.13156377  0.20324525  0.68296122     0.02100
C1800       C  0.12908781  0.21890612  0.69227466    -0.00200
C1801       C  0.14342683  0.22649640  0.70054549    -0.11900
C1802       C  0.15983814  0.21869322  0.69997546     0.02000
H1803       H  0.14980911  0.18348911  0.67497837     0.15000
H1804       H  0.14172645  0.23829003  0.70813674     0.15000
C1805       C  0.17344677  0.22650018  0.71011176     0.36700
C1806       C  0.11751615  0.19500909  0.67381648     0.36600
N1807       N  0.18404074  0.23298184  0.71848449    -0.43700
N1808       N  0.10628766  0.18835799  0.66646903    -0.43700
C1809       C  0.87973306  0.28387686  0.78114835    -0.00100
C1810       C  0.86422301  0.28042666  0.77222435    -0.12000
C1811       C  0.84807085  0.28450518  0.77942288     0.02100
C1812       C  0.84711369  0.29227901  0.79592389    -0.00200
C1813       C  0.86247613  0.29530367  0.80517778    -0.11900
C1814       C  0.87870862  0.29108337  0.79801131     0.02000
H1815       H  0.86465594  0.27483762  0.75933810     0.15000
H1816       H  0.86178735  0.30149565  0.81782696     0.15000
C1817       C  0.89403029  0.29534011  0.80778785     0.36700
C1818       C  0.83276943  0.28162893  0.76909689     0.36600
N1819       N  0.90628070  0.29878684  0.81567774    -0.43700
N1820       N  0.82063967  0.27933958  0.76062368    -0.43700
C1821       C  0.87577201  0.21587403  0.70656043    -0.00100
C1822       C  0.87331713  0.20192858  0.69506451    -0.12000
C1823       C  0.85663028  0.19578951  0.69154219     0.02100
C1824       C  0.84215433  0.20366379  0.69961749    -0.00200
C1825       C  0.84472529  0.21650135  0.71222232    -0.11900
C1826       C  0.86135860  0.22259327  0.71581893     0.02000
H1827       H  0.88433831  0.19631774  0.68830544     0.15000
H1828       H  0.83363865  0.22235452  0.71868247     0.15000
C1829       C  0.86323734  0.23565708  0.72916482     0.36700
C1830       C  0.85466164  0.18136316  0.67969237     0.36600
N1831       N  0.86475435  0.24608588  0.73990568    -0.43700
N1832       N  0.85325710  0.16959228  0.67040714    -0.43700
C1833       C  0.28398393  0.79830346  0.12775996    -0.00100
C1834       C  0.27972274  0.81274486  0.13808483    -0.12000
C1835       C  0.28692075  0.81500780  0.15452798     0.02100
C1836       C  0.29872174  0.80254146  0.16106586    -0.00200
C1837       C  0.30330028  0.78823415  0.15053700    -0.11900
C1838       C  0.29601034  0.78595987  0.13406249     0.02000
H1839       H  0.27054793  0.82232227  0.13328671     0.15000
H1840       H  0.31214063  0.77841880  0.15545386     0.15000
C1841       C  0.30025505  0.77029286  0.12453242     0.36700
C1842       C  0.28198785  0.83047705  0.16399768     0.36600
N1843       N  0.30368831  0.75767249  0.11700283    -0.43700
N1844       N  0.27751111  0.84298840  0.17113881    -0.43700
C1845       C  0.20113007  0.73335729  0.12521068    -0.00100
C1846       C  0.21259020  0.73673825  0.13895314    -0.12000
C1847       C  0.21171450  0.72737911  0.15444782     0.02100
C1848       C  0.19891296  0.71460390  0.15656515    -0.00200
C1849       C  0.18735694  0.71128005  0.14290395    -0.11900
C1850       C  0.18839029  0.72051125  0.12729185     0.02000
H1851       H  0.22265591  0.74636345  0.13737341     0.15000
H1852       H  0.17753947  0.70139324  0.14444145     0.15000
C1853       C  0.17595851  0.71696049  0.11380675     0.36700
C1854       C  0.22489297  0.73029007  0.16737290     0.36600
N1855       N  0.16595063  0.71418596  0.10300699    -0.43700
N1856       N  0.23577348  0.73264204  0.17739695    -0.43700
C1857       C  0.31923478  0.77926239  0.88738034    -0.00100
C1858       C  0.33397186  0.78763645  0.88118559    -0.12000
C1859       C  0.33439092  0.79429896  0.86427271     0.02100
C1860       C  0.32020593  0.79146804  0.85283485    -0.00200
C1861       C  0.30485351  0.78481365  0.86001137    -0.11900
C1862       C  0.30433156  0.77856277  0.87692736     0.02000
H1863       H  0.34517401  0.78891590  0.88954878     0.15000
H1864       H  0.29308673  0.78435420  0.85241811     0.15000
C1865       C  0.28837331  0.77120129  0.88321960     0.36700
C1866       C  0.34916064  0.80463785  0.85956406     0.36600
N1867       N  0.27562902  0.76530948  0.88833316    -0.43700
N1868       N  0.36102496  0.81297680  0.85595241    -0.43700
C1869       C  0.24297567  0.70826277  0.87404008    -0.00100
C1870       C  0.22819924  0.69778645  0.87393975    -0.12000
C1871       C  0.21964245  0.69383161  0.85844007     0.02100
C1872       C  0.22570969  0.70068435  0.84261316    -0.00200
C1873       C  0.24048077  0.71114430  0.84268049    -0.11900
C1874       C  0.24908198  0.71506759  0.85817783     0.02000
H1875       H  0.22351300  0.69237616  0.88600104     0.15000
H1876       H  0.24508395  0.71661838  0.83061173     0.15000
C1877       C  0.26353227  0.72684144  0.85741710     0.36700
C1878       C  0.20513760  0.68211509  0.85909664     0.36600
N1879       N  0.27507015  0.73632150  0.85664463    -0.43700
N1880       N  0.19351349  0.67272599  0.85963233    -0.43700
C1881       C  0.28135067  0.12369856  0.78866952    -0.00100
C1882       C  0.27505451  0.13475520  0.80184133    -0.12000
C1883       C  0.28141433  0.15173725  0.80410936     0.02100
C1884       C  0.29436170  0.15818154  0.79287050    -0.00200
C1885       C  0.30009399  0.14720710  0.77927160    -0.11900
C1886       C  0.29388895  0.13021621  0.77717740     0.02000
H1887       H  0.26514054  0.13002013  0.81054190     0.15000
H1888       H  0.30944833  0.15195302  0.76999626     0.15000
C1889       C  0.30003675  0.12013168  0.76256400     0.36700
C1890       C  0.27447252  0.16185314  0.81830613     0.36600
N1891       N  0.30497762  0.11210396  0.75081531    -0.43700
N1892       N  0.26850867  0.16973085  0.82967714    -0.43700
C1893       C  0.20528598  0.11539569  0.71270121    -0.00100
C1894       C  0.19549133  0.12790053  0.72178337    -0.12000
C1895       C  0.19310708  0.14472743  0.71550441     0.02100
C1896       C  0.19963364  0.14944834  0.69899566    -0.00200
C1897       C  0.20829427  0.13645270  0.68923881    -0.11900
C1898       C  0.21134222  0.11971332  0.69596046     0.02000
H1899       H  0.19022440  0.12482168  0.73440897     0.15000
H1900       H  0.21369027  0.13933810  0.67670641     0.15000
C1901       C  0.22166343  0.10785251  0.68566747     0.36700
C1902       C  0.18465078  0.15709913  0.72693576     0.36600
N1903       N  0.22997944  0.09857783  0.67717239    -0.43700
N1904       N  0.17791426  0.16696848  0.73613679    -0.43700
C1905       C  0.28915531  0.86964886  0.80014121    -0.00100
C1906       C  0.28134959  0.85902175  0.81258629    -0.12000
C1907       C  0.28857451  0.84300274  0.81716857     0.02100
C1908       C  0.30436408  0.83742733  0.80962190    -0.00200
C1909       C  0.31215373  0.84789646  0.79704134    -0.11900
C1910       C  0.30464769  0.86383287  0.79214476     0.02000
H1911       H  0.26926851  0.86309036  0.81855941     0.15000
H1912       H  0.32404923  0.84353332  0.79090285     0.15000
C1913       C  0.31251470  0.87325908  0.77812190     0.36700
C1914       C  0.27884185  0.83210383  0.82879900     0.36600
N1915       N  0.31881403  0.88068578  0.76677221    -0.43700
N1916       N  0.27103342  0.82335729  0.83807648    -0.43700
C1917       C  0.21808924  0.86347021  0.72155947    -0.00100
C1918       C  0.20885712  0.86249739  0.70593043    -0.12000
C1919       C  0.20615669  0.84645899  0.69756461     0.02100
C1920       C  0.21305064  0.83094857  0.70468755    -0.00200
C1921       C  0.22223249  0.83192263  0.72031151    -0.11900
C1922       C  0.22488179  0.84789482  0.72871269     0.02000
H1923       H  0.20343379  0.87427809  0.70040903     0.15000
H1924       H  0.22785267  0.82018560  0.72574402     0.15000
C1925       C  0.23544929  0.84787478  0.74414752     0.36700
C1926       C  0.19569405  0.84624032  0.68206981     0.36600
N1927       N  0.24394041  0.84773961  0.75650089    -0.43700
N1928       N  0.18730024  0.84606385  0.66965336    -0.43700
C1929       C  0.12689540  0.79703711  0.26978172    -0.00100
C1930       C  0.12683397  0.80659283  0.28533377    -0.12000
C1931       C  0.14199920  0.80859085  0.29508700     0.02100
C1932       C  0.15759621  0.80078818  0.28937805    -0.00200
C1933       C  0.15771263  0.79123271  0.27390804    -0.11900
C1934       C  0.14257922  0.78912558  0.26419087     0.02000
H1935       H  0.11495312  0.81276596  0.28973880     0.15000
H1936       H  0.16962415  0.78501361  0.26961741     0.15000
C1937       C  0.14352266  0.77799695  0.24910015     0.36700
C1938       C  0.14137618  0.81927941  0.31051675     0.36600
N1939       N  0.14446837  0.76905415  0.23702653    -0.43700
N1940       N  0.14092517  0.82787104  0.32287005    -0.43700
C1941       C  0.15959310  0.70618747  0.19910899    -0.00100
C1942       C  0.14522061  0.69830476  0.19111809    -0.12000
C1943       C  0.12852036  0.70540671  0.19288657     0.02100
C1944       C  0.12610480  0.72097104  0.20231069    -0.00200
C1945       C  0.14027517  0.72830285  0.21095974    -0.11900
C1946       C  0.15680303  0.72093427  0.20973396     0.02000
H1947       H  0.14707833  0.68683720  0.18307446     0.15000
H1948       H  0.13836880  0.73982724  0.21888218     0.15000
C1949       C  0.17028580  0.72831274  0.22033927     0.36700
C1950       C  0.11423764  0.69686938  0.18442659     0.36600
N1951       N  0.18064085  0.73440224  0.22928472    -0.43700
N1952       N  0.10275866  0.68993911  0.17776485    -0.43700
C1953       C  0.87705426  0.78664486  0.29427463    -0.00100
C1954       C  0.86718952  0.78306873  0.30908393    -0.12000
C1955       C  0.85132604  0.79150947  0.31212949     0.02100
C1956       C  0.84478668  0.80355362  0.29992729    -0.00200
C1957       C  0.85466337  0.80698309  0.28502692    -0.11900
C1958       C  0.87063533  0.79875495  0.28214592     0.02000
H1959       H  0.87201486  0.77372833  0.31843297     0.15000
H1960       H  0.84972730  0.81590386  0.27534678     0.15000
C1961       C  0.87963205  0.80230156  0.26616735     0.36700
C1962       C  0.84253764  0.78797745  0.32821761     0.36600
N1963       N  0.88678832  0.80516610  0.25333286    -0.43700
N1964       N  0.83562952  0.78497775  0.34115654    -0.43700
C1965       C  0.87527140  0.70660941  0.22117170    -0.00100
C1966       C  0.86210329  0.71880843  0.22433385    -0.12000
C1967       C  0.84569718  0.71701720  0.21689936     0.02100
C1968       C  0.84195555  0.70232975  0.20639159    -0.00200
C1969       C  0.85565468  0.69066531  0.20250683    -0.11900
C1970       C  0.87214201  0.69269710  0.20977388     0.02000
H1971       H  0.86467981  0.72984985  0.23275038     0.15000
H1972       H  0.85350444  0.67974206  0.19385866     0.15000
C1973       C  0.88538297  0.67988298  0.20606433     0.36700
C1974       C  0.83347726  0.73081752  0.22024253     0.36600
N1975       N  0.89601769  0.66960751  0.20316126    -0.43700
N1976       N  0.82440394  0.74259938  0.22265722    -0.43700
C1977       C  0.77600531  0.29104015  0.12883456    -0.00100
C1978       C  0.76750900  0.28556396  0.14394943    -0.12000
C1979       C  0.77298520  0.29093195  0.16043013     0.02100
C1980       C  0.78728879  0.30213079  0.16207102    -0.00200
C1981       C  0.79513863  0.30843365  0.14688486    -0.11900
C1982       C  0.78967170  0.30299876  0.13038890     0.02000
H1983       H  0.75685090  0.27651083  0.14292248     0.15000
H1984       H  0.80608992  0.31712236  0.14794474     0.15000
C1985       C  0.79921627  0.30878945  0.11543972     0.36700
C1986       C  0.76439472  0.28361579  0.17526882     0.36600
N1987       N  0.80692071  0.31339079  0.10346960    -0.43700
N1988       N  0.75717405  0.27752134  0.18685508    -0.43700
C1989       C  0.69313276  0.21886251  0.11614568    -0.00100
C1990       C  0.68674473  0.20252204  0.12071493    -0.12000
C1991       C  0.68195266  0.19900823  0.13791034     0.02100
C1992       C  0.68477281  0.21167787  0.15110795    -0.00200
C1993       C  0.68826259  0.22880505  0.14568257    -0.11900
C1994       C  0.69280901  0.23236578  0.12852816     0.02000
H1995       H  0.68629949  0.19224754  0.11104087     0.15000
H1996       H  0.68815377  0.23947974  0.15486087     0.15000
C1997       C  0.69844538  0.24969695  0.12424364     0.36700
C1998       C  0.67432733  0.18231509  0.14149732     0.36600
N1999       N  0.70303874  0.26356074  0.12083968    -0.43700
N2000       N  0.66824247  0.16890611  0.14430112    -0.43700
C2001       C  0.80587048  0.26610600  0.87545612    -0.00100
C2002       C  0.81655740  0.28074918  0.87520867    -0.12000
C2003       C  0.82025324  0.28935320  0.85971561     0.02100
C2004       C  0.81254180  0.28384178  0.84398682    -0.00200
C2005       C  0.80292882  0.26843641  0.84394973    -0.11900
C2006       C  0.79968182  0.25942930  0.85942441     0.02000
H2007       H  0.82197097  0.28560119  0.88725471     0.15000
H2008       H  0.79716122  0.26389938  0.83195977     0.15000
C2009       C  0.78915028  0.24402208  0.85837206     0.36700
C2010       C  0.83217785  0.30372216  0.86035774     0.36600
N2011       N  0.78082592  0.23160226  0.85728201    -0.43700
N2012       N  0.84173539  0.31523335  0.86087972    -0.43700
C2013       C  0.72440415  0.20625328  0.87522086    -0.00100
C2014       C  0.70975452  0.21578828  0.86975837    -0.12000
C2015       C  0.70235580  0.21296146  0.85334830     0.02100
C2016       C  0.70987339  0.20066049  0.84196522    -0.00200
C2017       C  0.72467754  0.19150096  0.84729212    -0.11900
C2018       C  0.73163284  0.19373352  0.86376819     0.02000
H2019       H  0.70399330  0.22545073  0.87828843     0.15000
H2020       H  0.73067103  0.18208111  0.83861308     0.15000
C2021       C  0.74553780  0.18210779  0.86864962     0.36700
C2022       C  0.68671197  0.22225193  0.84887656     0.36600
N2023       N  0.75664719  0.17267047  0.87236790    -0.43700
N2024       N  0.67414405  0.22970455  0.84536643    -0.43700
C2025       C  0.79031236  0.62751582  0.80990684    -0.00100
C2026       C  0.78616654  0.63819109  0.82415200    -0.12000
C2027       C  0.79401632  0.65445612  0.82646257     0.02100
C2028       C  0.80600965  0.66051988  0.81411032    -0.00200
C2029       C  0.81034027  0.64968575  0.80000197    -0.11900
C2030       C  0.80264853  0.63335540  0.79780880     0.02000
H2031       H  0.77670254  0.63379136  0.83350777     0.15000
H2032       H  0.81942699  0.65421952  0.79034349     0.15000
C2033       C  0.80681481  0.62339959  0.78243413     0.36700
C2034       C  0.78998110  0.66423901  0.84196583     0.36600
N2035       N  0.81011494  0.61545602  0.77007433    -0.43700
N2036       N  0.78665226  0.67178648  0.85455667    -0.43700
C2037       C  0.71715455  0.62601406  0.72611187    -0.00100
C2038       C  0.70215884  0.63605212  0.72850088    -0.12000
C2039       C  0.70000849  0.65202240  0.72013312     0.02100
C2040       C  0.71335024  0.65855253  0.70951600    -0.00200
C2041       C  0.72820817  0.64825437  0.70676426    -0.11900
C2042       C  0.73018817  0.63208668  0.71489872     0.02000
H2043       H  0.69202936  0.63133599  0.73696705     0.15000
H2044       H  0.73852497  0.65308217  0.69860633     0.15000
C2045       C  0.74613230  0.62253008  0.71234981     0.36700
C2046       C  0.68355171  0.66073339  0.72207897     0.36600
N2047       N  0.75891900  0.61486726  0.71032562    -0.43700
N2048       N  0.66999570  0.66694803  0.72386532    -0.43700
C2049       C  0.79507040  0.37732480  0.81060943    -0.00100
C2050       C  0.78607099  0.36545408  0.82098975    -0.12000
C2051       C  0.79095051  0.34791628  0.82195141     0.02100
C2052       C  0.80589436  0.34172604  0.81308744    -0.00200
C2053       C  0.81554683  0.35403055  0.80360966    -0.11900
C2054       C  0.81032965  0.37150782  0.80226935     0.02000
H2055       H  0.77446337  0.36968425  0.82774096     0.15000
H2056       H  0.82662476  0.35012848  0.79603531     0.15000
C2057       C  0.82032172  0.38258656  0.79108697     0.36700
C2058       C  0.77959537  0.33650053  0.83138247     0.36600
N2059       N  0.82854692  0.39120710  0.78205523    -0.43700
N2060       N  0.77044793  0.32745334  0.83899124    -0.43700
C2061       C  0.71764520  0.37398966  0.73416133    -0.00100
C2062       C  0.72521263  0.36899758  0.71828756    -0.12000
C2063       C  0.72085172  0.35319400  0.71014066     0.02100
C2064       C  0.70848433  0.34217998  0.71776348    -0.00200
C2065       C  0.70122297  0.34702843  0.73375898    -0.11900
C2066       C  0.70555619  0.36266742  0.74191728     0.02000
H2067       H  0.73468679  0.37737654  0.71228809     0.15000
H2068       H  0.69184889  0.33859587  0.73986876     0.15000
C2069       C  0.69672729  0.36692434  0.75790030     0.36700
C2070       C  0.72888485  0.34889695  0.69378196     0.36600
N2071       N  0.68962576  0.37016214  0.77073520    -0.43700
N2072       N  0.73547336  0.34550809  0.68071677    -0.43700
C2073       C  0.80811343  0.78825914  0.62633540    -0.00100
C2074       C  0.81878943  0.77808594  0.63699013    -0.12000
C2075       C  0.82233445  0.78286496  0.65411247     0.02100
C2076       C  0.81577500  0.79875001  0.66106830    -0.00200
C2077       C  0.80593684  0.80948403  0.64991057    -0.11900
C2078       C  0.80198086  0.80437006  0.63285092     0.02000
H2079       H  0.82382284  0.76577761  0.63215824     0.15000
H2080       H  0.80015701  0.82142458  0.65455253     0.15000
C2081       C  0.79039694  0.81534257  0.62303842     0.36700
C2082       C  0.83206985  0.77055287  0.66438172     0.36600
N2083       N  0.78105267  0.82426341  0.61537064    -0.43700
N2084       N  0.83997160  0.76066467  0.67247237    -0.43700
C2085       C  0.71707983  0.70146553  0.65883130    -0.00100
C2086       C  0.72556497  0.68911394  0.64809731    -0.12000
C2087       C  0.73046794  0.69305306  0.63109823     0.02100
C2088       C  0.72675993  0.70953553  0.62413652    -0.00200
C2089       C  0.71796110  0.72179440  0.63437979    -0.11900
C2090       C  0.71352174  0.71813193  0.65161912     0.02000
H2091       H  0.72946431  0.67657484  0.65293847     0.15000
H2092       H  0.71559262  0.73471635  0.62927568     0.15000
C2093       C  0.70622425  0.73218312  0.66181616     0.36700
C2094       C  0.73984256  0.68007636  0.62116551     0.36600
N2095       N  0.70039879  0.74347095  0.66996099    -0.43700
N2096       N  0.74740719  0.66972334  0.61322208    -0.43700
C2097       C  0.78507539  0.79848317  0.37302592    -0.00100
C2098       C  0.79834007  0.81082669  0.37282262    -0.12000
C2099       C  0.80569543  0.81620429  0.35711504     0.02100
C2100       C  0.79973344  0.80919362  0.34124661    -0.00200
C2101       C  0.78748055  0.79586624  0.34158285    -0.11900
C2102       C  0.78018995  0.79042619  0.35723768     0.02000
H2103       H  0.80253764  0.81673567  0.38488971     0.15000
H2104       H  0.78313796  0.79007185  0.32950691     0.15000
C2105       C  0.76789203  0.77637411  0.35669162     0.36700
C2106       C  0.81968819  0.82848276  0.35775052     0.36600
N2107       N  0.75807997  0.76507740  0.35620337    -0.43700
N2108       N  0.83110636  0.83808721  0.35866960    -0.43700
C2109       C  0.70546124  0.72343041  0.38177467    -0.00100
C2110       C  0.71966556  0.71688004  0.37252904    -0.12000
C2111       C  0.71784280  0.71109716  0.35536499     0.02100
C2112       C  0.70143899  0.71183881  0.34700495    -0.00200
C2113       C  0.68699315  0.71681643  0.35718674    -0.11900
C2114       C  0.68896396  0.72284750  0.37421786     0.02000
H2115       H  0.73243715  0.71738744  0.37833518     0.15000
H2116       H  0.67404157  0.71665308  0.35210124     0.15000
C2117       C  0.67390437  0.72899672  0.38356153     0.36700
C2118       C  0.73333661  0.70558098  0.34635711     0.36600
N2119       N  0.66185635  0.73391986  0.39107154    -0.43700
N2120       N  0.74582350  0.70135230  0.33916516    -0.43700
C2121       C  0.77638795  0.62761381  0.19012193    -0.00100
C2122       C  0.76895042  0.64148735  0.18098242    -0.12000
C2123       C  0.77688391  0.65775786  0.18025516     0.02100
C2124       C  0.79315741  0.66052128  0.18836402    -0.00200
C2125       C  0.80123398  0.64603284  0.19626522    -0.11900
C2126       C  0.79301203  0.62984899  0.19735914     0.02000
H2127       H  0.75625787  0.63991713  0.17519879     0.15000
H2128       H  0.81349663  0.64720533  0.20274813     0.15000
C2129       C  0.80141799  0.61643557  0.20739904     0.36700
C2130       C  0.76727257  0.67163827  0.17203902     0.36600
N2131       N  0.80830369  0.60584568  0.21553574    -0.43700
N2132       N  0.75948380  0.68270103  0.16548235    -0.43700
C2133       C  0.70617378  0.63557369  0.28079087    -0.00100
C2134       C  0.71932293  0.64048603  0.29235510    -0.12000
C2135       C  0.71912417  0.65698313  0.30034126     0.02100
C2136       C  0.70548184  0.66881003  0.29690102    -0.00200
C2137       C  0.69201116  0.66354387  0.28589771    -0.11900
C2138       C  0.69223549  0.64715623  0.27790376     0.02000
H2139       H  0.73020550  0.63177813  0.29448116     0.15000
H2140       H  0.68120588  0.67227443  0.28351140     0.15000
C2141       C  0.67787271  0.64243235  0.26691310     0.36700
C2142       C  0.73360046  0.66182757  0.31108248     0.36600
N2143       N  0.66635198  0.63860702  0.25814233    -0.43700
N2144       N  0.74529333  0.66563394  0.31962269    -0.43700
C2145       C  0.77248551  0.37983766  0.20299113    -0.00100
C2146       C  0.78266110  0.37399399  0.21685094    -0.12000
C2147       C  0.79000557  0.35729353  0.21669139     0.02100
C2148       C  0.78746475  0.34616505  0.20229545    -0.00200
C2149       C  0.77728601  0.35202475  0.18840132    -0.11900
C2150       C  0.76979464  0.36870970  0.18865857     0.02000
H2151       H  0.78433309  0.38227148  0.22814792     0.15000
H2152       H  0.77542189  0.34366136  0.17720016     0.15000
C2153       C  0.75982346  0.37435401  0.17387929     0.36700
C2154       C  0.79911184  0.35153161  0.23196134     0.36600
N2155       N  0.75191513  0.37894613  0.16200024    -0.43700
N2156       N  0.80621423  0.34700153  0.24435212    -0.43700
C2157       C  0.69422717  0.38598999  0.28100671    -0.00100
C2158       C  0.70734242  0.37692352  0.28967614    -0.12000
C2159       C  0.70469706  0.35992787  0.29558965     0.02100
C2160       C  0.68843766  0.35165500  0.29315436    -0.00200
C2161       C  0.67504210  0.36149916  0.28536506    -0.11900
C2162       C  0.67788510  0.37832529  0.27920635     0.02000
H2163       H  0.72003280  0.38274421  0.29091050     0.15000
H2164       H  0.66235656  0.35624920  0.28327150     0.15000
C2165       C  0.66385877  0.38742625  0.27071990     0.36700
C2166       C  0.71924690  0.35107508  0.30343499     0.36600
N2167       N  0.65263068  0.39473782  0.26394367    -0.43700
N2168       N  0.73090850  0.34401123  0.30972970    -0.43700
C2169       C  0.63650135  0.78079777  0.79714877    -0.00100
C2170       C  0.65150272  0.77179588  0.79176627    -0.12000
C2171       C  0.66802559  0.77875712  0.79412475     0.02100
C2172       C  0.66995827  0.79513823  0.80221245    -0.00200
C2173       C  0.65497224  0.80420129  0.80761349    -0.11900
C2174       C  0.63838531  0.79726276  0.80509617     0.02000
H2175       H  0.65037356  0.75936195  0.78519395     0.15000
H2176       H  0.65621642  0.81674872  0.81396656     0.15000
C2177       C  0.62363907  0.80714160  0.81120757     0.36700
C2178       C  0.68255070  0.76905427  0.78723312     0.36600
N2179       N  0.61187389  0.81515932  0.81610487    -0.43700
N2180       N  0.69396793  0.76099912  0.78162353    -0.43700
C2181       C  0.63964783  0.70850697  0.72226780    -0.00100
C2182       C  0.65423346  0.71083766  0.73286352    -0.12000
C2183       C  0.67107206  0.70798714  0.72676984     0.02100
C2184       C  0.67394889  0.70322082  0.70918252    -0.00200
C2185       C  0.65921295  0.70071175  0.69861480    -0.11900
C2186       C  0.64231738  0.70319358  0.70493981     0.02000
H2187       H  0.65260136  0.71503029  0.74618778     0.15000
H2188       H  0.66073567  0.69615050  0.68539970     0.15000
C2189       C  0.62804879  0.69935343  0.69351667     0.36700
C2190       C  0.68465894  0.70982205  0.73943015     0.36600
N2191       N  0.61669177  0.69619468  0.68427468    -0.43700
N2192       N  0.69506300  0.71113704  0.75014082    -0.43700
C2193       C  0.38342554  0.78520358  0.78201559    -0.00100
C2194       C  0.38335609  0.80047830  0.79208625    -0.12000
C2195       C  0.36786195  0.80705316  0.79911524     0.02100
C2196       C  0.35212803  0.79840072  0.79595661    -0.00200
C2197       C  0.35192325  0.78428173  0.78446090    -0.11900
C2198       C  0.36734710  0.77765769  0.77743489     0.02000
H2199       H  0.39549497  0.80667259  0.79535434     0.15000
H2200       H  0.33982406  0.77767488  0.78190118     0.15000
C2201       C  0.36621236  0.76294977  0.76577660     0.36700
C2202       C  0.36839769  0.82233688  0.81004328     0.36600
N2203       N  0.36521538  0.75114610  0.75646350    -0.43700
N2204       N  0.36874271  0.83466721  0.81870120    -0.43700
C2205       C  0.79077207  0.22451756  0.62181223    -0.00100
C2206       C  0.80325710  0.21147040  0.62389353    -0.12000
C2207       C  0.80547046  0.20324634  0.63995287     0.02100
C2208       C  0.79537679  0.20849233  0.65452570    -0.00200
C2209       C  0.78127695  0.21984300  0.65141032    -0.11900
C2210       C  0.77913415  0.22803633  0.63541966     0.02000
H2211       H  0.81185431  0.20829809  0.61320544     0.15000
H2212       H  0.77181998  0.22271085  0.66130189     0.15000
C2213       C  0.76507796  0.24036072  0.63339578     0.36700
C2214       C  0.81869353  0.18998384  0.64107443     0.36600
N2215       N  0.75383697  0.25024174  0.63177849    -0.43700
N2216       N  0.82938743  0.17940413  0.64154300    -0.43700
C2217       C  0.73250592  0.30984564  0.63360056    -0.00100
C2218       C  0.74114231  0.30339550  0.64833634    -0.12000
C2219       C  0.73338559  0.30340468  0.66478384     0.02100
C2220       C  0.71611198  0.30930090  0.66683064    -0.00200
C2221       C  0.70786207  0.31669419  0.65228183    -0.11900
C2222       C  0.71589173  0.31724234  0.63596173     0.02000
H2223       H  0.75403560  0.29795127  0.64711873     0.15000
H2224       H  0.69503527  0.32232434  0.65366844     0.15000
C2225       C  0.70698453  0.32614742  0.62214331     0.36700
C2226       C  0.74387611  0.29738051  0.67900427     0.36600
N2227       N  0.69981977  0.33343397  0.61116298    -0.43700
N2228       N  0.75307754  0.29296379  0.68998716    -0.43700
C2229       C  0.77467382  0.21337541  0.37918719    -0.00100
C2230       C  0.76554947  0.20173425  0.36864708    -0.12000
C2231       C  0.77083864  0.19787673  0.35175141     0.02100
C2232       C  0.78651061  0.20476655  0.34505644    -0.00200
C2233       C  0.79610327  0.21588738  0.35602471    -0.11900
C2234       C  0.79027411  0.22035646  0.37277408     0.02000
H2235       H  0.75355127  0.19622562  0.37333597     0.15000
H2236       H  0.80759646  0.22221336  0.35131484     0.15000
C2237       C  0.79983140  0.23330498  0.38231864     0.36700
C2238       C  0.75906129  0.18759146  0.34146836     0.36600
N2239       N  0.80753844  0.24378097  0.38981183    -0.43700
N2240       N  0.74932404  0.17933761  0.33361833    -0.43700
C2241       C  0.70013553  0.29476895  0.37400261    -0.00100
C2242       C  0.68571627  0.28827510  0.36507120    -0.12000
C2243       C  0.68188260  0.29345240  0.34809961     0.02100
C2244       C  0.69278837  0.30526192  0.33943820    -0.00200
C2245       C  0.70710898  0.31200276  0.34850664    -0.11900
C2246       C  0.71084665  0.30689527  0.36558459     0.02000
H2247       H  0.67735466  0.27899944  0.37143447     0.15000
H2248       H  0.71567327  0.32103046  0.34207553     0.15000
C2249       C  0.72629523  0.31350079  0.37371450     0.36700
C2250       C  0.66626222  0.28682241  0.34037889     0.36600
N2251       N  0.73871737  0.31878246  0.38018444    -0.43700
N2252       N  0.65359973  0.28123366  0.33470541    -0.43700
C2253       C  0.20570568  0.13093952  0.27667372    -0.00100
C2254       C  0.19596005  0.13214908  0.29197758    -0.12000
C2255       C  0.19304982  0.14832310  0.30007383     0.02100
C2256       C  0.20017763  0.16358239  0.29288801    -0.00200
C2257       C  0.21077906  0.16214928  0.27823012    -0.11900
C2258       C  0.21366981  0.14608337  0.27015590     0.02000
H2259       H  0.18990301  0.12058618  0.29712130     0.15000
H2260       H  0.21663416  0.17373113  0.27287654     0.15000
C2261       C  0.22504810  0.14556781  0.25530134     0.36700
C2262       C  0.18177555  0.14900583  0.31497738     0.36600
N2263       N  0.23415154  0.14520324  0.24339336    -0.43700
N2264       N  0.17275457  0.14954713  0.32694089    -0.43700
C2265       C  0.27179731  0.12755985  0.19377689    -0.00100
C2266       C  0.26665939  0.13734607  0.17932821    -0.12000
C2267       C  0.27419287  0.15348699  0.17571864     0.02100
C2268       C  0.28690168  0.16033515  0.18695976    -0.00200
C2269       C  0.29203850  0.15045335  0.20139640    -0.11900
C2270       C  0.28468785  0.13424050  0.20485177     0.02000
H2271       H  0.25671115  0.13230969  0.17079010     0.15000
H2272       H  0.30152572  0.15563911  0.21035657     0.15000
C2273       C  0.28987249  0.12530490  0.22043707     0.36700
C2274       C  0.26899630  0.16234332  0.16010414     0.36600
N2275       N  0.29405519  0.11823275  0.23297312    -0.43700
N2276       N  0.26470337  0.16929134  0.14753650    -0.43700
C2277       C  0.28617222  0.87411168  0.21933541    -0.00100
C2278       C  0.29761265  0.87312293  0.20527557    -0.12000
C2279       C  0.30363822  0.85699371  0.19918214     0.02100
C2280       C  0.29806835  0.84150831  0.20712449    -0.00200
C2281       C  0.28567735  0.84239218  0.22030698    -0.11900
C2282       C  0.27967877  0.85850494  0.22647311     0.02000
H2283       H  0.30229850  0.88498426  0.19941006     0.15000
H2284       H  0.28110333  0.83047864  0.22617416     0.15000
C2285       C  0.26669185  0.85856714  0.23993568     0.36700
C2286       C  0.31496300  0.85664866  0.18432404     0.36600
N2287       N  0.25627370  0.85853259  0.25071072    -0.43700
N2288       N  0.32367428  0.85656034  0.17213410    -0.43700
C2289       C  0.21305947  0.87516364  0.28763712    -0.00100
C2290       C  0.22353127  0.86440066  0.29803618    -0.12000
C2291       C  0.21876059  0.84750690  0.30219117     0.02100
C2292       C  0.20261719  0.84101635  0.29679419    -0.00200
C2293       C  0.19192920  0.85152740  0.28644099    -0.11900
C2294       C  0.19701270  0.86846522  0.28174026     0.02000
H2295       H  0.23575563  0.86906256  0.30300792     0.15000
H2296       H  0.17951973  0.84657142  0.28219374     0.15000
C2297       C  0.18563528  0.87828466  0.27061672     0.36700
C2298       C  0.23106720  0.83687041  0.31156035     0.36600
N2299       N  0.17632253  0.88595086  0.26167927    -0.43700
N2300       N  0.24088809  0.82831438  0.31903893    -0.43700
C2301       C  0.27440093  0.22384482  0.11690499    -0.00100
C2302       C  0.28490791  0.20888339  0.11628728    -0.12000
C2303       C  0.29100036  0.20112097  0.13154921     0.02100
C2304       C  0.28637719  0.20815986  0.14784032    -0.00200
C2305       C  0.27494844  0.22235644  0.14854812    -0.11900
C2306       C  0.26896621  0.23026274  0.13331122     0.02000
H2307       H  0.28891884  0.20361427  0.10384608     0.15000
H2308       H  0.27119730  0.22768824  0.16105466     0.15000
C2309       C  0.25710498  0.24477088  0.13500213     0.36700
C2310       C  0.30190349  0.18586535  0.13018979     0.36600
N2311       N  0.24760894  0.25639456  0.13647385    -0.43700
N2312       N  0.31049275  0.17352755  0.12903687    -0.43700
C2313       C  0.20196745  0.30387382  0.10855579    -0.00100
C2314       C  0.19470950  0.28973568  0.11719052    -0.12000
C2315       C  0.18947528  0.29112797  0.13454629     0.02100
C2316       C  0.19080384  0.30723607  0.14366910    -0.00200
C2317       C  0.19752197  0.32157679  0.13451797    -0.11900
C2318       C  0.20327684  0.31991367  0.11732030     0.02000
H2319       H  0.19412798  0.27721109  0.11067289     0.15000
H2320       H  0.19914541  0.33405621  0.14068778     0.15000
C2321       C  0.21093381  0.33478977  0.10900994     0.36700
C2322       C  0.18360547  0.27543373  0.14286272     0.36600
N2323       N  0.21709799  0.34669252  0.10235262    -0.43700
N2324       N  0.17894690  0.26285930  0.14953767    -0.43700
C2325       C  0.21799481  0.28855888  0.85968219    -0.00100
C2326       C  0.20303094  0.28148043  0.85203659    -0.12000
C2327       C  0.19773474  0.28632910  0.83523446     0.02100
C2328       C  0.20764922  0.29827611  0.82563527    -0.00200
C2329       C  0.22279948  0.30491357  0.83318824    -0.11900
C2330       C  0.22769903  0.30068752  0.85005835     0.02000
H2331       H  0.19539340  0.27218738  0.85920318     0.15000
H2332       H  0.23067892  0.31403177  0.82604018     0.15000
C2333       C  0.24207019  0.31009249  0.85743863     0.36700
C2334       C  0.18172223  0.27948562  0.82855843     0.36600
N2335       N  0.25351114  0.31778840  0.86328007    -0.43700
N2336       N  0.16886738  0.27397207  0.82324105    -0.43700
C2337       C  0.28877756  0.21677830  0.86732291    -0.00100
C2338       C  0.29407431  0.19934001  0.86507416    -0.12000
C2339       C  0.29934489  0.19301977  0.84872033     0.02100
C2340       C  0.29922993  0.20417869  0.83427443    -0.00200
C2341       C  0.29467888  0.22158900  0.83663302    -0.11900
C2342       C  0.28869188  0.22779959  0.85259308     0.02000
H2343       H  0.29441256  0.19072557  0.87614747     0.15000
H2344       H  0.29578309  0.23043956  0.82581167     0.15000
C2345       C  0.28157927  0.24521919  0.85285259     0.36700
C2346       C  0.30550014  0.17531407  0.84717560     0.36600
N2347       N  0.27578178  0.25914375  0.85277656    -0.43700
N2348       N  0.31046957  0.16112961  0.84589886    -0.43700
C2349       C  0.38968608  0.70759679  0.71077156    -0.00100
C2350       C  0.38028198  0.69287679  0.71564528    -0.12000
C2351       C  0.36340769  0.69013411  0.70964001     0.02100
C2352       C  0.35540790  0.70250000  0.69868921    -0.00200
C2353       C  0.36499506  0.71711338  0.69357219    -0.11900
C2354       C  0.38194402  0.71975162  0.69948013     0.02000
H2355       H  0.38614254  0.68351131  0.72436896     0.15000
H2356       H  0.35904035  0.72682136  0.68530769     0.15000
C2357       C  0.39058777  0.73560476  0.69469255     0.36700
C2358       C  0.35501300  0.67423519  0.71464388     0.36600
N2359       N  0.39747099  0.74834856  0.69088452    -0.43700
N2360       N  0.34866920  0.66136025  0.71890971    -0.43700
C2361       C  0.24092866  0.62482458  0.79180944    -0.00100
C2362       C  0.24674102  0.63443658  0.80616596    -0.12000
C2363       C  0.23942218  0.65068984  0.81034945     0.02100
C2364       C  0.22612675  0.65772154  0.79986473    -0.00200
C2365       C  0.22074309  0.64825498  0.78520325    -0.11900
C2366       C  0.22795656  0.63203273  0.78110606     0.02000
H2367       H  0.25687496  0.62907929  0.81431170     0.15000
H2368       H  0.21100855  0.65370908  0.77665176     0.15000
C2369       C  0.22239658  0.62359197  0.76531736     0.36700
C2370       C  0.24543163  0.65939496  0.82580109     0.36600
N2371       N  0.21792683  0.61691401  0.75262452    -0.43700
N2372       N  0.25047036  0.66621462  0.83819793    -0.43700
C2373       C  0.30856107  0.62676969  0.71374017    -0.00100
C2374       C  0.30416812  0.64127224  0.72409769    -0.12000
C2375       C  0.30583254  0.65829781  0.71799466     0.02100
C2376       C  0.31208585  0.66121335  0.70107087    -0.00200
C2377       C  0.31646630  0.64670059  0.69068174    -0.11900
C2378       C  0.31473106  0.62964911  0.69680766     0.02000
H2379       H  0.29905009  0.63935843  0.73701811     0.15000
H2380       H  0.32157340  0.64867513  0.67775832     0.15000
C2381       C  0.31997784  0.61544420  0.68564873     0.36700
C2382       C  0.30049076  0.67230561  0.72936286     0.36600
N2383       N  0.32420171  0.60410596  0.67663861    -0.43700
N2384       N  0.29624360  0.68325585  0.73882772    -0.43700
C2385       C  0.20066612  0.34879821  0.78449235    -0.00100
C2386       C  0.20743047  0.35504327  0.76874499    -0.12000
C2387       C  0.21173664  0.37254317  0.76677878     0.02100
C2388       C  0.20925036  0.38428544  0.78062934    -0.00200
C2389       C  0.20034892  0.37879642  0.79536939    -0.11900
C2390       C  0.19542453  0.36133962  0.79710994     0.02000
H2391       H  0.20958780  0.34636670  0.75787426     0.15000
H2392       H  0.19779017  0.38799441  0.80577835     0.15000
C2393       C  0.18523355  0.35673277  0.81206118     0.36700
C2394       C  0.21929946  0.37814903  0.75063438     0.36600
N2395       N  0.17705173  0.35305209  0.82403796    -0.43700
N2396       N  0.22528251  0.38288077  0.73776133    -0.43700
C2397       C  0.28480186  0.36992957  0.70849042    -0.00100
C2398       C  0.29871418  0.36955435  0.69682112    -0.12000
C2399       C  0.30634895  0.35370145  0.69179978     0.02100
C2400       C  0.29991190  0.33787538  0.69837107    -0.00200
C2401       C  0.28503427  0.33815846  0.70866628    -0.11900
C2402       C  0.27747985  0.35397500  0.71381105     0.02000
H2403       H  0.30425766  0.38166898  0.69239917     0.15000
H2404       H  0.27983500  0.32601849  0.71345276     0.15000
C2405       C  0.26232253  0.35332692  0.72468902     0.36700
C2406       C  0.32094184  0.35400048  0.68012481     0.36600
N2407       N  0.25018490  0.35243992  0.73340026    -0.43700
N2408       N  0.33263062  0.35424109  0.67076148    -0.43700
C2409       C  0.22655336  0.78113477  0.61803967    -0.00100
C2410       C  0.23948501  0.78715016  0.62924618    -0.12000
C2411       C  0.23553008  0.79197790  0.64641919     0.02100
C2412       C  0.21836498  0.79029486  0.65283992    -0.00200
C2413       C  0.20529278  0.78632414  0.64063786    -0.11900
C2414       C  0.20928625  0.78143278  0.62362630     0.02000
H2415       H  0.25280827  0.78729601  0.62483916     0.15000
H2416       H  0.19177856  0.78693832  0.64397592     0.15000
C2417       C  0.19540318  0.77647248  0.61211316     0.36700
C2418       C  0.24946116  0.79819956  0.65721352     0.36600
N2419       N  0.18430703  0.77251083  0.60286545    -0.43700
N2420       N  0.26064065  0.80318489  0.66584708    -0.43700
C2421       C  0.29770872  0.70720993  0.61733751    -0.00100
C2422       C  0.30966448  0.69425431  0.62175969    -0.12000
C2423       C  0.31581329  0.69286848  0.63880548     0.02100
C2424       C  0.30957558  0.70437348  0.65193194    -0.00200
C2425       C  0.29918998  0.71856668  0.64670710    -0.11900
C2426       C  0.29314619  0.71995685  0.62973375     0.02000
H2427       H  0.31369971  0.68481398  0.61204825     0.15000
H2428       H  0.29562422  0.72883434  0.65559240     0.15000
C2429       C  0.28225478  0.73467784  0.62537406     0.36700
C2430       C  0.32819673  0.67922493  0.64248950     0.36600
N2431       N  0.27353438  0.74646118  0.62192447    -0.43700
N2432       N  0.33812249  0.66830134  0.64545318    -0.43700
C2433       C  0.20879439  0.78520397  0.37558095    -0.00100
C2434       C  0.20308821  0.77246871  0.36391332    -0.12000
C2435       C  0.19564837  0.77724428  0.34803632     0.02100
C2436       C  0.19481688  0.79507078  0.34331035    -0.00200
C2437       C  0.19761538  0.80753268  0.35651504    -0.11900
C2438       C  0.20486838  0.80273758  0.37238799     0.02000
H2439       H  0.20559609  0.75885309  0.36662988     0.15000
H2440       H  0.19488740  0.82115083  0.35450629     0.15000
C2441       C  0.20928707  0.81612570  0.38478991     0.36700
C2442       C  0.19017215  0.76357676  0.33638515     0.36600
N2443       N  0.21283068  0.82680451  0.39477488    -0.43700
N2444       N  0.18578939  0.75264568  0.32703049    -0.43700
C2445       C  0.30650304  0.71946983  0.36503098    -0.00100
C2446       C  0.29313373  0.70786975  0.36104150    -0.12000
C2447       C  0.29243007  0.69957851  0.34485276     0.02100
C2448       C  0.30548931  0.70268938  0.33246769    -0.00200
C2449       C  0.31923235  0.71376097  0.33683429    -0.11900
C2450       C  0.31973029  0.72226893  0.35287568     0.02000
H2451       H  0.28269251  0.70605519  0.37023884     0.15000
H2452       H  0.32950703  0.71602658  0.32756277     0.15000
C2453       C  0.33380484  0.73398587  0.35650070     0.36700
C2454       C  0.27747642  0.68915592  0.34089806     0.36600
N2455       N  0.34512481  0.74334267  0.35937021    -0.43700
N2456       N  0.26535958  0.68091036  0.33792062    -0.43700
C2457       C  0.63172418  0.23007786  0.79491581    -0.00100
C2458       C  0.63239955  0.21759086  0.80809084    -0.12000
C2459       C  0.64796471  0.20920375  0.81226924     0.02100
C2460       C  0.66321116  0.21322325  0.80314028    -0.00200
C2461       C  0.66277470  0.22611153  0.79042334    -0.11900
C2462       C  0.64719329  0.23445297  0.78610816     0.02000
H2463       H  0.62067481  0.21421402  0.81498540     0.15000
H2464       H  0.67442584  0.22889974  0.78312847     0.15000
C2465       C  0.64731253  0.24624208  0.77160109     0.36700
C2466       C  0.64802409  0.19641013  0.82590152     0.36600
N2467       N  0.64750693  0.25560505  0.75990620    -0.43700
N2468       N  0.64814813  0.18621426  0.83687834    -0.43700
C2469       C  0.62495102  0.29234729  0.70592679    -0.00100
C2470       C  0.63665900  0.27951327  0.70028147    -0.12000
C2471       C  0.65406350  0.28364538  0.69705723     0.02100
C2472       C  0.66013087  0.30081446  0.70012210    -0.00200
C2473       C  0.64754741  0.31392142  0.70303355    -0.11900
C2474       C  0.63025813  0.30979198  0.70620921     0.02000
H2475       H  0.63251517  0.26608186  0.69949888     0.15000
H2476       H  0.65091507  0.32750778  0.70312722     0.15000
C2477       C  0.61819572  0.32367962  0.71023052     0.36700
C2478       C  0.66550296  0.26986084  0.69128112     0.36600
N2479       N  0.60850095  0.33478105  0.71341516    -0.43700
N2480       N  0.67467172  0.25883080  0.68661221    -0.43700
C2481       C  0.34675215  0.19737508  0.78999318    -0.00100
C2482       C  0.35236837  0.20569919  0.77476211    -0.12000
C2483       C  0.36963373  0.21035612  0.77248989     0.02100
C2484       C  0.38194614  0.20624851  0.78529280    -0.00200
C2485       C  0.37708369  0.19562997  0.79912997    -0.11900
C2486       C  0.35970732  0.19077712  0.80132040     0.02000
H2487       H  0.34347562  0.20878063  0.76443346     0.15000
H2488       H  0.38669970  0.19172835  0.80860031     0.15000
C2489       C  0.35554114  0.17923834  0.81539973     0.36700
C2490       C  0.37433968  0.21974488  0.75702397     0.36600
N2491       N  0.35217910  0.16990099  0.82660289    -0.43700
N2492       N  0.37808941  0.22727604  0.74464888    -0.43700
C2493       C  0.38706192  0.29076226  0.71555107    -0.00100
C2494       C  0.37837953  0.27860058  0.70524765    -0.12000
C2495       C  0.36160850  0.28194329  0.69913241     0.02100
C2496       C  0.35320153  0.29806692  0.70285947    -0.00200
C2497       C  0.36254163  0.31049944  0.71262819    -0.11900
C2498       C  0.37913541  0.30690478  0.71902987     0.02000
H2499       H  0.38434688  0.26601471  0.70277138     0.15000
H2500       H  0.35702380  0.32290938  0.71611488     0.15000
C2501       C  0.38775113  0.31996223  0.72937527     0.36700
C2502       C  0.35311060  0.26815848  0.68968892     0.36600
N2503       N  0.39466416  0.33042175  0.73764089    -0.43700
N2504       N  0.34631612  0.25710558  0.68212576    -0.43700
C2505       C  0.62826746  0.77876884  0.19842744    -0.00100
C2506       C  0.64158114  0.77190309  0.18809599    -0.12000
C2507       C  0.65796242  0.77942003  0.18770871     0.02100
C2508       C  0.66136279  0.79494580  0.19719128    -0.00200
C2509       C  0.64776267  0.80209786  0.20720996    -0.11900
C2510       C  0.63149075  0.79409326  0.20808474     0.02000
H2511       H  0.63937841  0.76009285  0.18068115     0.15000
H2512       H  0.64986190  0.81336780  0.21530835     0.15000
C2513       C  0.61902388  0.80113048  0.22020353     0.36700
C2514       C  0.67113644  0.77031949  0.17784802     0.36600
N2515       N  0.60918413  0.80680642  0.23006409    -0.43700
N2516       N  0.68155025  0.76296619  0.16984005    -0.43700
C2517       C  0.63381259  0.70759241  0.27175254    -0.00100
C2518       C  0.63426803  0.69986584  0.28816593    -0.12000
C2519       C  0.64958010  0.69933352  0.29790518     0.02100
C2520       C  0.66487718  0.70697875  0.29137945    -0.00200
C2521       C  0.66455016  0.71411398  0.27472522    -0.11900
C2522       C  0.64922919  0.71485877  0.26506445     0.02000
H2523       H  0.62265254  0.69396236  0.29330176     0.15000
H2524       H  0.67623641  0.71954481  0.26933357     0.15000
C2525       C  0.64964924  0.72417453  0.24886865     0.36700
C2526       C  0.64938121  0.68999123  0.31408893     0.36600
N2527       N  0.65009704  0.73173974  0.23594874    -0.43700
N2528       N  0.64923305  0.68248056  0.32704497    -0.43700
C2529       C  0.34795113  0.79859744  0.20422889    -0.00100
C2530       C  0.35323050  0.78261547  0.21150636    -0.12000
C2531       C  0.36999954  0.78022099  0.21780205     0.02100
C2532       C  0.38208127  0.79374300  0.21644953    -0.00200
C2533       C  0.37783167  0.80855664  0.20692595    -0.11900
C2534       C  0.36105700  0.81088698  0.20039549     0.02000
H2535       H  0.34438213  0.77185264  0.21251520     0.15000
H2536       H  0.38744015  0.81861121  0.20514604     0.15000
C2537       C  0.35785628  0.82608446  0.18998824     0.36700
C2538       C  0.37443770  0.76385486  0.22585889     0.36600
N2539       N  0.35574314  0.83833735  0.18160285    -0.43700
N2540       N  0.37797293  0.75071838  0.23225324    -0.43700
C2541       C  0.37669851  0.72091615  0.28810974    -0.00100
C2542       C  0.36205822  0.72953402  0.28136949    -0.12000
C2543       C  0.34551402  0.72228744  0.28243989     0.02100
C2544       C  0.34328903  0.70591129  0.29023785    -0.00200
C2545       C  0.35789242  0.69729321  0.29707280    -0.11900
C2546       C  0.37444687  0.70465505  0.29615979     0.02000
H2547       H  0.36352702  0.74195277  0.27496397     0.15000
H2548       H  0.35631066  0.68487654  0.30346849     0.15000
C2549       C  0.38869243  0.69567682  0.30435197     0.36700
C2550       C  0.33121998  0.73177906  0.27491548     0.36600
N2551       N  0.40006998  0.68850851  0.31103299    -0.43700
N2552       N  0.31989025  0.73960914  0.26891963    -0.43700
C2553       C  0.22508390  0.20997541  0.62327648    -0.00100
C2554       C  0.23530909  0.20003218  0.63466589    -0.12000
C2555       C  0.22886707  0.19423778  0.65049237     0.02100
C2556       C  0.21161671  0.19794295  0.65521040    -0.00200
C2557       C  0.20133419  0.20808646  0.64415081    -0.11900
C2558       C  0.20788389  0.21413824  0.62827380     0.02000
H2559       H  0.24852152  0.19668651  0.63125199     0.15000
H2560       H  0.18811218  0.21112929  0.64785011     0.15000
C2561       C  0.19682158  0.22503183  0.61783194     0.36700
C2562       C  0.24045556  0.18497499  0.66195597     0.36600
N2563       N  0.18780965  0.23378013  0.60959720    -0.43700
N2564       N  0.24970547  0.17760973  0.67119836    -0.43700
C2565       C  0.30816723  0.29891633  0.65447722    -0.00100
C2566       C  0.29219019  0.29104778  0.65108615    -0.12000
C2567       C  0.28731245  0.28659624  0.63418908     0.02100
C2568       C  0.29835444  0.29031188  0.62014210    -0.00200
C2569       C  0.31344916  0.29979862  0.62320030    -0.11900
C2570       C  0.31835757  0.30430256  0.64016747     0.02000
H2571       H  0.28379659  0.28748037  0.66168757     0.15000
H2572       H  0.32183865  0.30295559  0.61241419     0.15000
C2573       C  0.33376526  0.31459581  0.64235813     0.36700
C2574       C  0.27122895  0.27746696  0.63165940     0.36600
N2575       N  0.34613913  0.32282962  0.64403201    -0.43700
N2576       N  0.25836599  0.27011451  0.62964258    -0.43700
C2577       C  0.19302333  0.21079713  0.33874422    -0.00100
C2578       C  0.17905465  0.21764177  0.34855323    -0.12000
C2579       C  0.18124606  0.22343312  0.36567062     0.02100
C2580       C  0.19753856  0.22229579  0.37368192    -0.00200
C2581       C  0.21136060  0.21491364  0.36446928    -0.11900
C2582       C  0.20934780  0.20936606  0.34722450     0.02000
H2583       H  0.16632209  0.21910675  0.34313030     0.15000
H2584       H  0.22403227  0.21428462  0.37048935     0.15000
C2585       C  0.22453377  0.20264024  0.33852159     0.36700
C2586       C  0.16653306  0.23069795  0.37479263     0.36600
N2587       N  0.23679604  0.19719579  0.33175488    -0.43700
N2588       N  0.15475067  0.23648193  0.38212721    -0.43700
C2589       C  0.27177531  0.29315252  0.36491966    -0.00100
C2590       C  0.26385925  0.28427666  0.35106008    -0.12000
C2591       C  0.27031653  0.28533007  0.33412215     0.02100
C2592       C  0.28496328  0.29559100  0.33064920    -0.00200
C2593       C  0.29306399  0.30426398  0.34455115    -0.11900
C2594       C  0.28665575  0.30309594  0.36154346     0.02000
H2595       H  0.25260407  0.27630497  0.35347922     0.15000
H2596       H  0.30418738  0.31240023  0.34206865     0.15000
C2597       C  0.29504608  0.31295636  0.37506697     0.36700
C2598       C  0.26194412  0.27529020  0.32070172     0.36600
N2599       N  0.30178197  0.32091590  0.38586844    -0.43700
N2600       N  0.25515640  0.26722626  0.31000950    -0.43700
C2601       C  0.21794194  0.62323199  0.19390648    -0.00100
C2602       C  0.22803092  0.63591864  0.18571755    -0.12000
C2603       C  0.22211469  0.65302515  0.18363928     0.02100
C2604       C  0.20526768  0.65796088  0.18922048    -0.00200
C2605       C  0.19470492  0.64482560  0.19624246    -0.11900
C2606       C  0.20085252  0.62778978  0.19877371     0.02000
H2607       H  0.24104066  0.63268895  0.18148787     0.15000
H2608       H  0.18185228  0.64769536  0.20084764     0.15000
C2609       C  0.18952474  0.61587540  0.20755614     0.36700
C2610       C  0.23419577  0.66544796  0.17667642     0.36600
N2611       N  0.18017816  0.60660745  0.21464343    -0.43700
N2612       N  0.24393316  0.67538980  0.17121521    -0.43700
C2613       C  0.29402810  0.61930892  0.27720038    -0.00100
C2614       C  0.28120723  0.62981452  0.28476259    -0.12000
C2615       C  0.28479358  0.64696253  0.28996175     0.02100
C2616       C  0.30165963  0.65398594  0.28777757    -0.00200
C2617       C  0.31469318  0.64266762  0.28136091    -0.11900
C2618       C  0.31093960  0.62572880  0.27585659     0.02000
H2619       H  0.26808659  0.62497554  0.28563725     0.15000
H2620       H  0.32791314  0.64672185  0.28010939     0.15000
C2621       C  0.32465546  0.61521462  0.26843879     0.36700
C2622       C  0.27054725  0.65730836  0.29653595     0.36600
N2623       N  0.33561585  0.60678700  0.26246646    -0.43700
N2624       N  0.25900554  0.66557405  0.30155271    -0.43700
C2625       C  0.18624656  0.37402191  0.21873841    -0.00100
C2626       C  0.17189172  0.36313205  0.22095823    -0.12000
C2627       C  0.17054634  0.34729297  0.21185810     0.02100
C2628       C  0.18390685  0.34196942  0.20047482    -0.00200
C2629       C  0.19843367  0.35272128  0.19863212    -0.11900
C2630       C  0.19972141  0.36854359  0.20759267     0.02000
H2631       H  0.16157869  0.36714452  0.22966532     0.15000
H2632       H  0.20895267  0.34865852  0.19019534     0.15000
C2633       C  0.21542155  0.37844060  0.20575559     0.36700
C2634       C  0.15500645  0.33722310  0.21389288     0.36600
N2635       N  0.22804230  0.38631966  0.20433809    -0.43700
N2636       N  0.14248672  0.32924756  0.21561164    -0.43700
C2637       C  0.25973695  0.37140667  0.29344013    -0.00100
C2638       C  0.25095312  0.35603948  0.28913398    -0.12000
C2639       C  0.25923525  0.33979784  0.28899927     0.02100
C2640       C  0.27711317  0.33848601  0.29300079    -0.00200
C2641       C  0.28576537  0.35389945  0.29781926    -0.11900
C2642       C  0.27737983  0.37014463  0.29799893     0.02000
H2643       H  0.23745587  0.35660458  0.28541402     0.15000
H2644       H  0.29919876  0.35335019  0.30178376     0.15000
C2645       C  0.28722577  0.38513231  0.30333118     0.36700
C2646       C  0.24854828  0.32513897  0.28458275     0.36600
N2647       N  0.29526218  0.39707544  0.30755144    -0.43700
N2648       N  0.23918150  0.31388064  0.28140085    -0.43700
C2649       C  0.62098592  0.20637063  0.22740472    -0.00100
C2650       C  0.62126874  0.19633547  0.21216743    -0.12000
C2651       C  0.63622079  0.19517659  0.20192055     0.02100
C2652       C  0.65134624  0.20416647  0.20690491    -0.00200
C2653       C  0.65105941  0.21427181  0.22204325    -0.11900
C2654       C  0.63604813  0.21566834  0.23214760     0.02000
H2655       H  0.60982079  0.18918394  0.20836410     0.15000
H2656       H  0.66244763  0.22159631  0.22567293     0.15000
C2657       C  0.63622983  0.22770898  0.24655409     0.36700
C2658       C  0.63589737  0.18410971  0.18675230     0.36600
N2659       N  0.63646743  0.23750031  0.25798752    -0.43700
N2660       N  0.63561474  0.17523721  0.17459620    -0.43700
C2661       C  0.65017385  0.29743530  0.29830650    -0.00100
C2662       C  0.63486831  0.30565104  0.30415393    -0.12000
C2663       C  0.61882649  0.29722296  0.30341149     0.02100
C2664       C  0.61783191  0.28008935  0.29689617    -0.00200
C2665       C  0.63311636  0.27191475  0.29106013    -0.11900
C2666       C  0.64909274  0.28038355  0.29153732     0.02000
H2667       H  0.63546075  0.31864926  0.30963725     0.15000
H2668       H  0.63257889  0.25887126  0.28574582     0.15000
C2669       C  0.66387467  0.27137608  0.28428526     0.36700
C2670       C  0.60376475  0.30622311  0.31005091     0.36600
N2671       N  0.67548249  0.26383106  0.27838132    -0.43700
N2672       N  0.59172136  0.31349784  0.31538654    -0.43700
C2673       C  0.37217501  0.21082708  0.19672272    -0.00100
C2674       C  0.36771054  0.20468541  0.18021338    -0.12000
C2675       C  0.35069334  0.19942983  0.17652516     0.02100
C2676       C  0.33745292  0.20160499  0.18918496    -0.00200
C2677       C  0.34273189  0.20551077  0.20627216    -0.11900
C2678       C  0.35976264  0.21027380  0.21003692     0.02000
H2679       H  0.37742379  0.20440188  0.17007022     0.15000
H2680       H  0.33351836  0.20521816  0.21682550     0.15000
C2681       C  0.36406016  0.21525513  0.22757830     0.36700
C2682       C  0.34752124  0.19141644  0.15988985     0.36600
N2683       N  0.36753011  0.21920872  0.24163665    -0.43700
N2684       N  0.34520262  0.18487081  0.14656125    -0.43700
C2685       C  0.36687080  0.29742802  0.27164419    -0.00100
C2686       C  0.35452525  0.30674468  0.26203415    -0.12000
C2687       C  0.33758578  0.30915800  0.26801746     0.02100
C2688       C  0.33257392  0.30289273  0.28455799    -0.00200
C2689       C  0.34533858  0.29435625  0.29456752    -0.11900
C2690       C  0.36217304  0.29145275  0.28826720     0.02000
H2691       H  0.35788198  0.31150266  0.24926949     0.15000
H2692       H  0.34218836  0.28871219  0.30691197     0.15000
C2693       C  0.37366962  0.28091419  0.29863399     0.36700
C2694       C  0.32541044  0.31718322  0.25624424     0.36600
N2695       N  0.38268245  0.27236503  0.30707206    -0.43700
N2696       N  0.31569414  0.32356697  0.24675818    -0.43700
C2697       C  0.72769289  0.78394084  0.78743724    -0.00100
C2698       C  0.72862803  0.78551122  0.76938721    -0.12000
C2699       C  0.73953421  0.77487440  0.75934915     0.02100
C2700       C  0.75012250  0.76166661  0.76724335    -0.00200
C2701       C  0.74859699  0.76010419  0.78556955    -0.11900
C2702       C  0.73765906  0.77094814  0.79549799     0.02000
H2703       H  0.72096047  0.79549570  0.76304393     0.15000
H2704       H  0.75611062  0.75065871  0.79266483     0.15000
C2705       C  0.73770658  0.76903759  0.81409612     0.36700
C2706       C  0.73967804  0.77822174  0.74088561     0.36600
N2707       N  0.73788436  0.76737291  0.82898877    -0.43700
N2708       N  0.73970766  0.78091223  0.72614261    -0.43700
C2709       C  0.77503006  0.73915055  0.76937913    -0.00100
C2710       C  0.76866322  0.72340506  0.77666283    -0.12000
C2711       C  0.77909524  0.71229097  0.78685936     0.02100
C2712       C  0.79569579  0.71764606  0.79212170    -0.00200
C2713       C  0.80103163  0.73424424  0.78716474    -0.11900
C2714       C  0.79166026  0.74454481  0.77557536     0.02000
H2715       H  0.75569575  0.71915943  0.77353230     0.15000
H2716       H  0.81313730  0.73926606  0.79217335     0.15000
C2717       C  0.80059400  0.76021238  0.77091512     0.36700
C2718       C  0.77270895  0.69520287  0.79089587     0.36600
N2719       N  0.80909931  0.77218600  0.76798080    -0.43700
N2720       N  0.76759206  0.68145277  0.79400016    -0.43700
C2721       C  0.77468557  0.76161248  0.74407793    -0.00100
C2722       C  0.78288493  0.75407586  0.72940793    -0.12000
C2723       C  0.79384348  0.76324186  0.71831923     0.02100
C2724       C  0.79659397  0.78115324  0.72081275    -0.00200
C2725       C  0.78876802  0.78916977  0.73514022    -0.11900
C2726       C  0.77847444  0.77982318  0.74690946     0.02000
H2727       H  0.78111496  0.74079571  0.72605613     0.15000
H2728       H  0.79100438  0.80290678  0.73743854     0.15000
C2729       C  0.77406600  0.78931646  0.76256814     0.36700
C2730       C  0.80266181  0.75346759  0.70487946     0.36600
N2731       N  0.77089859  0.79718470  0.77501756    -0.43700
N2732       N  0.80960417  0.74541165  0.69421362    -0.43700
C2733       C  0.75208763  0.73627509  0.74480259    -0.00100
C2734       C  0.73417186  0.73918861  0.74148278    -0.12000
C2735       C  0.72503972  0.73027315  0.72859639     0.02100
C2736       C  0.73221930  0.71547020  0.72076268    -0.00200
C2737       C  0.74901219  0.71050295  0.72538474    -0.11900
C2738       C  0.75897305  0.72050684  0.73704682     0.02000
H2739       H  0.72664092  0.74859828  0.74849665     0.15000
H2740       H  0.75453934  0.69886151  0.71953351     0.15000
C2741       C  0.77605910  0.71359398  0.74069676     0.36700
C2742       C  0.70872568  0.73744909  0.72277779     0.36600
N2743       N  0.78971021  0.70794742  0.74340627    -0.43700
N2744       N  0.69581216  0.74343284  0.71799906    -0.43700
C2745       C  0.27841550  0.76033637  0.76697158    -0.00100
C2746       C  0.27676486  0.77868898  0.76773598    -0.12000
C2747       C  0.28605717  0.78881910  0.77972736     0.02100
C2748       C  0.29714736  0.78079078  0.79183783    -0.00200
C2749       C  0.29832886  0.76260660  0.79179284    -0.11900
C2750       C  0.28915772  0.75242366  0.77987067     0.02000
H2751       H  0.26778307  0.78540954  0.75936584     0.15000
H2752       H  0.30684255  0.75622047  0.80099016     0.15000
C2753       C  0.29218723  0.73387010  0.78067862     0.36700
C2754       C  0.28311333  0.80737071  0.77980733     0.36600
N2755       N  0.29505850  0.71910111  0.78152564    -0.43700
N2756       N  0.28047774  0.82220159  0.77958003    -0.43700
C2757       C  0.23372654  0.71558371  0.78556858    -0.00100
C2758       C  0.23250079  0.73371952  0.78656669    -0.12000
C2759       C  0.24365552  0.74445978  0.77713371     0.02100
C2760       C  0.25634017  0.73716015  0.76561270    -0.00200
C2761       C  0.25797515  0.71875930  0.76565382    -0.11900
C2762       C  0.24685713  0.70812229  0.77524548     0.02000
H2763       H  0.22262788  0.73957314  0.79477071     0.15000
H2764       H  0.26809422  0.71229230  0.75839060     0.15000
C2765       C  0.24887406  0.68951529  0.77356453     0.36700
C2766       C  0.24080930  0.76298031  0.77885906     0.36600
N2767       N  0.25077203  0.67466091  0.77188084    -0.43700
N2768       N  0.23813600  0.77774632  0.78034618    -0.43700
C2769       C  0.23400372  0.77627544  0.71541991    -0.00100
C2770       C  0.25165668  0.78013831  0.71639149    -0.12000
C2771       C  0.26260556  0.77212886  0.72863737     0.02100
C2772       C  0.25598716  0.75983765  0.74080534    -0.00200
C2773       C  0.23815987  0.75567901  0.73888060    -0.11900
C2774       C  0.22731470  0.76390549  0.72685803     0.02000
H2775       H  0.25698946  0.78944066  0.70734738     0.15000
H2776       H  0.23236107  0.74527664  0.74613147     0.15000
C2777       C  0.20953331  0.75840600  0.72592872     0.36700
C2778       C  0.28060496  0.77686505  0.72784558     0.36600
N2779       N  0.19539955  0.75357898  0.72560469    -0.43700
N2780       N  0.29481506  0.78135135  0.72670426    -0.43700
C2781       C  0.27998506  0.73808029  0.74112782    -0.00100
C2782       C  0.27147001  0.72671303  0.72942818    -0.12000
C2783       C  0.28038662  0.71661515  0.71719692     0.02100
C2784       C  0.29846802  0.71780375  0.71578559    -0.00200
C2785       C  0.30730424  0.72892038  0.72696641    -0.11900
C2786       C  0.29848371  0.73934146  0.73918455     0.02000
H2787       H  0.25751228  0.72556260  0.72996716     0.15000
H2788       H  0.32119879  0.73021027  0.72542060     0.15000
C2789       C  0.30922957  0.75199090  0.74780865     0.36700
C2790       C  0.27065329  0.70485365  0.70633976     0.36600
N2791       N  0.31832890  0.76203327  0.75424618    -0.43700
N2792       N  0.26291896  0.69537301  0.69765119    -0.43700
C2793       C  0.78830756  0.28363701  0.78693833    -0.00100
C2794       C  0.78781409  0.26547253  0.78917494    -0.12000
C2795       C  0.77794009  0.25457602  0.77824668     0.02100
C2796       C  0.76651863  0.26170473  0.76552394    -0.00200
C2797       C  0.76754638  0.27991321  0.76314118    -0.11900
C2798       C  0.77870331  0.29050789  0.77280412     0.02000
H2799       H  0.79531491  0.25950453  0.79939169     0.15000
H2800       H  0.76078579  0.28609208  0.75256032     0.15000
C2801       C  0.78114365  0.30793195  0.76634500     0.36700
C2802       C  0.77968094  0.23603156  0.78070889     0.36600
N2803       N  0.78301044  0.32180323  0.76091891    -0.43700
N2804       N  0.78114188  0.22119591  0.78278942    -0.43700
C2805       C  0.74137839  0.23893938  0.76457091     0.07900
C2806       C  0.74016403  0.24078974  0.78288920    -0.12000
C2807       C  0.72977313  0.22990291  0.79310641     0.02100
C2808       C  0.71917614  0.21731991  0.78520370    -0.00200
C2809       C  0.71856384  0.21677490  0.76709475    -0.11900
C2810       C  0.72900768  0.22745636  0.75684142     0.02000
H2811       H  0.74735495  0.25068792  0.78966880     0.15000
H2812       H  0.70979984  0.20775379  0.76080745     0.15000
C2813       C  0.72667694  0.22553538  0.73838592     0.36700
C2814       C  0.73096842  0.23150648  0.81171003     0.36600
N2815       N  0.72405758  0.22321966  0.72379566    -0.43700
N2816       N  0.73212462  0.23296864  0.82659672    -0.43700
C2817       C  0.76771836  0.23822562  0.74275782    -0.00100
C2818       C  0.76634448  0.21983391  0.74244554    -0.12000
C2819       C  0.77516181  0.20954178  0.73016636     0.02100
C2820       C  0.78811694  0.21685038  0.71973687    -0.00200
C2821       C  0.79171295  0.23456404  0.72184796    -0.11900
C2822       C  0.78153827  0.24532266  0.73265346     0.02000
H2823       H  0.75753311  0.21317694  0.75089441     0.15000
H2824       H  0.80149846  0.24038169  0.71366641     0.15000
C2825       C  0.78457943  0.26375501  0.73116173     0.36700
C2826       C  0.76862790  0.19231962  0.72689393     0.36600
N2827       N  0.78735786  0.27840497  0.72931118    -0.43700
N2828       N  0.76249104  0.17887980  0.72424906    -0.43700
C2829       C  0.74258168  0.26161447  0.74158198    -0.00100
C2830       C  0.73073100  0.27292602  0.75023398    -0.12000
C2831       C  0.71942410  0.28408847  0.74127782     0.02100
C2832       C  0.71935885  0.28419256  0.72307923    -0.00200
C2833       C  0.72992985  0.27240959  0.71426381    -0.11900
C2834       C  0.74138523  0.26123094  0.72298368     0.02000
H2835       H  0.73053547  0.27325068  0.76428051     0.15000
H2836       H  0.72869406  0.27147642  0.70028568     0.15000
C2837       C  0.74990194  0.24877945  0.71182919     0.36700
C2838       C  0.70787319  0.29524437  0.75105011     0.36600
N2839       N  0.75594382  0.23893723  0.70214526    -0.43700
N2840       N  0.69851839  0.30412331  0.75884321    -0.43700
C2841       C  0.78771684  0.79319012  0.28603567    -0.00100
C2842       C  0.79673035  0.78009018  0.27713919    -0.12000
C2843       C  0.78808423  0.76773244  0.26684028     0.02100
C2844       C  0.76967021  0.76847750  0.26493947    -0.00200
C2845       C  0.76078810  0.78050906  0.27584484    -0.11900
C2846       C  0.76951753  0.79302961  0.28575007     0.02000
H2847       H  0.81074397  0.77970354  0.27800106     0.15000
H2848       H  0.74677392  0.78104228  0.27555338     0.15000
C2849       C  0.75945682  0.80602480  0.29492542     0.36700
C2850       C  0.79874534  0.75389195  0.26002054     0.36600
N2851       N  0.75139669  0.81656501  0.30209863    -0.43700
N2852       N  0.80756745  0.74259149  0.25535664    -0.43700
C2853       C  0.78497856  0.71949070  0.21670397    -0.00100
C2854       C  0.78606963  0.73751947  0.21429125    -0.12000
C2855       C  0.77889111  0.74951304  0.22622525     0.02100
C2856       C  0.76856370  0.74381906  0.24051678    -0.00200
C2857       C  0.76654530  0.72557839  0.24184686    -0.11900
C2858       C  0.77564467  0.71371867  0.23138792     0.02000
H2859       H  0.79293013  0.74247325  0.20314521     0.15000
H2860       H  0.75791080  0.71993312  0.25112683     0.15000
C2861       C  0.77579393  0.69583827  0.23708243     0.36700
C2862       C  0.78298412  0.76750924  0.22323643     0.36600
N2863       N  0.77587687  0.68159204  0.24186835    -0.43700
N2864       N  0.78711396  0.78158657  0.22011817    -0.43700
C2865       C  0.74701612  0.76797559  0.23967907    -0.00100
C2866       C  0.73527776  0.75864688  0.22906755    -0.12000
C2867       C  0.72333621  0.76693532  0.21815112     0.02100
C2868       C  0.72277323  0.78528396  0.21720874    -0.00200
C2869       C  0.73550559  0.79459406  0.22607709    -0.11900
C2870       C  0.74771266  0.78641667  0.23681921     0.02000
H2871       H  0.73498144  0.74456809  0.22985951     0.15000
H2872       H  0.73599937  0.80855781  0.22468911     0.15000
C2873       C  0.76115137  0.79777473  0.24309857     0.36700
C2874       C  0.71219955  0.75605024  0.20779704     0.36600
N2875       N  0.77175672  0.80737658  0.24755654    -0.43700
N2876       N  0.70338161  0.74707673  0.19963877    -0.43700
C2877       C  0.74586898  0.74685965  0.26586609    -0.00100
C2878       C  0.72777374  0.75040305  0.26652971    -0.12000
C2879       C  0.71644664  0.74100178  0.27714656     0.02100
C2880       C  0.72279812  0.72750484  0.28760229    -0.00200
C2881       C  0.74069442  0.72506679  0.28866144    -0.11900
C2882       C  0.75218464  0.73493675  0.27866012     0.02000
H2883       H  0.72218500  0.76107498  0.25935406     0.15000
H2884       H  0.74577126  0.71552385  0.29768501     0.15000
C2885       C  0.77032718  0.73178370  0.28179160     0.36700
C2886       C  0.69861776  0.74658324  0.27824730     0.36600
N2887       N  0.78459437  0.72852785  0.28503925    -0.43700
N2888       N  0.68446422  0.75147885  0.27929972    -0.43700
C2889       C  0.26529464  0.23777042  0.75314180    -0.00100
C2890       C  0.26522911  0.24027484  0.77132629    -0.12000
C2891       C  0.27379488  0.22885232  0.78269676     0.02100
C2892       C  0.28511639  0.21595559  0.77617236    -0.00200
C2893       C  0.28641087  0.21411530  0.75814950    -0.11900
C2894       C  0.27664168  0.22439437  0.74675848     0.02000
H2895       H  0.25813585  0.25093817  0.77709524     0.15000
H2896       H  0.29514746  0.20431874  0.75287006     0.15000
C2897       C  0.27820557  0.21999178  0.72861405     0.36700
C2898       C  0.26952416  0.23024318  0.80078826     0.36600
N2899       N  0.27966994  0.21579751  0.71425773    -0.43700
N2900       N  0.26466544  0.23168006  0.81490014    -0.43700
C2901       C  0.23971989  0.26105249  0.74982709    -0.00100
C2902       C  0.23654930  0.27784453  0.74302358    -0.12000
C2903       C  0.22532180  0.28984771  0.75095043     0.02100
C2904       C  0.21806262  0.28628397  0.76742539    -0.00200
C2905       C  0.21981458  0.26915508  0.77351507    -0.11900
C2906       C  0.22897652  0.25631894  0.76411808     0.02000
H2907       H  0.24259387  0.28178975  0.73106961     0.15000
H2908       H  0.21366770  0.26539575  0.78548594     0.15000
C2909       C  0.22700979  0.23866217  0.77004745     0.36700
C2910       C  0.22058590  0.30497130  0.74092579     0.36600
N2911       N  0.22503921  0.22476342  0.77536465    -0.43700
N2912       N  0.21677336  0.31694921  0.73270333    -0.43700
C2913       C  0.26661802  0.25956837  0.72976907    -0.00100
C2914       C  0.27062851  0.25593870  0.71217617    -0.12000
C2915       C  0.28286883  0.26567008  0.70283220     0.02100
C2916       C  0.29120343  0.27991236  0.71066906    -0.00200
C2917       C  0.28784972  0.28340297  0.72814051    -0.11900
C2918       C  0.27623741  0.27332656  0.73775758     0.02000
H2919       H  0.26474546  0.24504071  0.70563463     0.15000
H2920       H  0.29470198  0.29395273  0.73446629     0.15000
C2921       C  0.27443932  0.27789139  0.75585597     0.36700
C2922       C  0.28770202  0.25981974  0.68570353     0.36600
N2923       N  0.27312546  0.28196169  0.77026060    -0.43700
N2924       N  0.29172802  0.25475406  0.67213290    -0.43700
C2925       C  0.24160550  0.23556876  0.72964399    -0.00100
C2926       C  0.23795073  0.21895417  0.73651968    -0.12000
C2927       C  0.22647645  0.20731091  0.72874819     0.02100
C2928       C  0.21946700  0.21078061  0.71213165    -0.00200
C2929       C  0.22259107  0.22741564  0.70524951    -0.11900
C2930       C  0.23231264  0.24004067  0.71428036     0.02000
H2931       H  0.24335568  0.21502054  0.74879976     0.15000
H2932       H  0.21713140  0.23097787  0.69286874     0.15000
C2933       C  0.23213828  0.25735636  0.70715170     0.36700
C2934       C  0.22128887  0.19274011  0.73924799     0.36600
N2935       N  0.23170530  0.27103229  0.70095452    -0.43700
N2936       N  0.21732382  0.18120334  0.74793460    -0.43700
C2937       C  0.28510254  0.78472885  0.21737388    -0.00100
C2938       C  0.28461268  0.78594612  0.23543505    -0.12000
C2939       C  0.27323643  0.77587281  0.24525114     0.02100
C2940       C  0.26143615  0.76415403  0.23703353    -0.00200
C2941       C  0.26234821  0.76308254  0.21867506    -0.11900
C2942       C  0.27382867  0.77320623  0.20896588     0.02000
H2943       H  0.29351710  0.79464342  0.24197513     0.15000
H2944       H  0.25487887  0.75364361  0.21157885     0.15000
C2945       C  0.27465196  0.77053522  0.19045088     0.36700
C2946       C  0.27421290  0.77805910  0.26383180     0.36600
N2947       N  0.27525817  0.76818025  0.17564143    -0.43700
N2948       N  0.27519555  0.78018214  0.27865844    -0.43700
C2949       C  0.21442198  0.78378262  0.28187631    -0.00100
C2950       C  0.21496990  0.76562374  0.28326533    -0.12000
C2951       C  0.22549553  0.75527243  0.27250008     0.02100
C2952       C  0.23667701  0.76301612  0.25998215    -0.00200
C2953       C  0.23482745  0.78132640  0.25789445    -0.11900
C2954       C  0.22412773  0.79158444  0.26864986     0.02000
H2955       H  0.20708616  0.75939484  0.29304591     0.15000
H2956       H  0.24165646  0.78801970  0.24773197     0.15000
C2957       C  0.22389984  0.81016497  0.26607615     0.36700
C2958       C  0.22460293  0.73677348  0.27542831     0.36600
N2959       N  0.22381375  0.82502585  0.26376132    -0.43700
N2960       N  0.22348855  0.72209287  0.27846319    -0.43700
C2961       C  0.26262794  0.74024777  0.25827666    -0.00100
C2962       C  0.26401161  0.74067531  0.27659990    -0.12000
C2963       C  0.27476280  0.72901481  0.28569468     0.02100
C2964       C  0.28492664  0.71672144  0.27661253    -0.00200
C2965       C  0.28469135  0.71693525  0.25853376    -0.11900
C2966       C  0.27409155  0.72849500  0.24936523     0.02000
H2967       H  0.25663731  0.75000502  0.28411848     0.15000
H2968       H  0.29276724  0.70773029  0.25145533     0.15000
C2969       C  0.27469382  0.72686357  0.23071876     0.36700
C2970       C  0.27437502  0.72937824  0.30438626     0.36600
N2971       N  0.27543964  0.72500603  0.21584209    -0.43700
N2972       N  0.27388554  0.72976715  0.31936913    -0.43700
C2973       C  0.21655651  0.71732058  0.21547547    -0.00100
C2974       C  0.21654616  0.73542866  0.21277419    -0.12000
C2975       C  0.22555063  0.74684911  0.22385332     0.02100
C2976       C  0.23706591  0.74020768  0.23668904    -0.00200
C2977       C  0.23575339  0.72218069  0.24007396    -0.11900
C2978       C  0.22500428  0.71119063  0.23055410     0.02000
H2979       H  0.20933389  0.74094107  0.20211261     0.15000
H2980       H  0.24245392  0.71641227  0.25092038     0.15000
C2981       C  0.22174694  0.69425768  0.23788065     0.36700
C2982       C  0.22295453  0.76526721  0.22122283     0.36600
N2983       N  0.21912221  0.68080005  0.24396475    -0.43700
N2984       N  0.22068189  0.77996237  0.21886784    -0.43700
C2985       C  0.75496645  0.26679958  0.23915996    -0.00100
C2986       C  0.75432797  0.28528973  0.23962252    -0.12000
C2987       C  0.76555196  0.29566222  0.22984099     0.02100
C2988       C  0.77882716  0.28795096  0.21994746    -0.00200
C2989       C  0.78071415  0.26982587  0.22041676    -0.11900
C2990       C  0.76919922  0.25931129  0.22970928     0.02000
H2991       H  0.74534219  0.29215420  0.24788180     0.15000
H2992       H  0.79109120  0.26374344  0.21304614     0.15000
C2993       C  0.77214877  0.24076281  0.22844308     0.36700
C2994       C  0.76349825  0.31431495  0.23084483     0.36600
N2995       N  0.77472856  0.22597248  0.22703935    -0.43700
N2996       N  0.76157685  0.32922843  0.23179074    -0.43700
C2997       C  0.77240036  0.22097038  0.28373891    -0.00100
C2998       C  0.77382300  0.23907843  0.28475494    -0.12000
C2999       C  0.76449974  0.25006115  0.27364362     0.02100
C3000       C  0.75244429  0.24310368  0.26139341    -0.00200
C3001       C  0.75176848  0.22468216  0.26011579    -0.11900
C3002       C  0.76163903  0.21377413  0.27091223     0.02000
H3003       H  0.78237732  0.24472195  0.29438232     0.15000
H3004       H  0.74388346  0.21842650  0.25040096     0.15000
C3005       C  0.76026104  0.19521699  0.26853890     0.36700
C3006       C  0.76729780  0.26852135  0.27574386     0.36600
N3007       N  0.75896735  0.18041358  0.26615829    -0.43700
N3008       N  0.76968421  0.28325300  0.27766651    -0.43700
C3009       C  0.72968639  0.24433208  0.23625289    -0.00100
C3010       C  0.73301600  0.24418674  0.21822242    -0.12000
C3011       C  0.72390857  0.23367194  0.20656850     0.02100
C3012       C  0.70872300  0.22489164  0.21184500    -0.00200
C3013       C  0.70466843  0.22543334  0.22960618    -0.11900
C3014       C  0.71510481  0.23435986  0.24172700     0.02000
H3015       H  0.74304855  0.25200022  0.21266547     0.15000
H3016       H  0.69331426  0.21875357  0.23425184     0.15000
C3017       C  0.71037913  0.23272197  0.25973845     0.36700
C3018       C  0.73165161  0.23126778  0.18966041     0.36600
N3019       N  0.70638621  0.23109902  0.27409049    -0.43700
N3020       N  0.73803966  0.22937568  0.17620719    -0.43700
C3021       C  0.72833581  0.26687955  0.26035977    -0.00100
C3022       C  0.72732470  0.26549605  0.27872538    -0.12000
C3023       C  0.71718683  0.27681897  0.28891043     0.02100
C3024       C  0.70705793  0.28978514  0.28101840    -0.00200
C3025       C  0.70649574  0.29026894  0.26283390    -0.11900
C3026       C  0.71646602  0.27882724  0.25256565     0.02000
H3027       H  0.73432305  0.25548436  0.28557407     0.15000
H3028       H  0.69816778  0.29974170  0.25655549     0.15000
C3029       C  0.71467744  0.28032572  0.23399155     0.36700
C3030       C  0.71800905  0.27519214  0.30752305     0.36600
N3031       N  0.71317047  0.28169011  0.21913829    -0.43700
N3032       N  0.71873592  0.27377433  0.32242742    -0.43700
C3033       C  0.22637340  0.26133431  0.22354781    -0.00100
C3034       C  0.21595753  0.27449923  0.23135270    -0.12000
C3035       C  0.20574187  0.28614639  0.22156321     0.02100
C3036       C  0.20400595  0.28379093  0.20342119    -0.00200
C3037       C  0.21190900  0.26895078  0.19613925    -0.11900
C3038       C  0.22280832  0.25789609  0.20561876     0.02000
H3039       H  0.21683865  0.27648719  0.24525219     0.15000
H3040       H  0.20929728  0.26556746  0.18274563     0.15000
C3041       C  0.22817191  0.24237809  0.19638585     0.36700
C3042       C  0.19865237  0.30103874  0.23058330     0.36600
N3043       N  0.23207510  0.23015235  0.18843601    -0.43700
N3044       N  0.19319439  0.31295057  0.23807947    -0.43700
C3045       C  0.25154471  0.23888739  0.22376880    -0.00100
C3046       C  0.25014348  0.22044346  0.22328427    -0.12000
C3047       C  0.26171821  0.20990296  0.21370938     0.02100
C3048       C  0.27516887  0.21752305  0.20416603    -0.00200
C3049       C  0.27622980  0.23562844  0.20377211    -0.11900
C3050       C  0.26459184  0.24625365  0.21294302     0.02000
H3051       H  0.23972944  0.21398270  0.22994619     0.15000
H3052       H  0.28618376  0.24158079  0.19589092     0.15000
C3053       C  0.26621369  0.26462301  0.20981682     0.36700
C3054       C  0.25972162  0.19126329  0.21424291     0.36600
N3055       N  0.26836184  0.27903586  0.20622171    -0.43700
N3056       N  0.25800710  0.17633234  0.21473907    -0.43700
C3057       C  0.21067272  0.22063196  0.27619987    -0.00100
C3058       C  0.20142507  0.23026523  0.26401704    -0.12000
C3059       C  0.20960328  0.23802738  0.24970307     0.02100
C3060       C  0.22822019  0.23891716  0.24865077    -0.00200
C3061       C  0.23696504  0.22788615  0.26066562    -0.11900
C3062       C  0.22857171  0.21898560  0.27405811     0.02000
H3063       H  0.18746916  0.23098802  0.26522576     0.15000
H3064       H  0.25032045  0.22462971  0.25903659     0.15000
C3065       C  0.23859463  0.20744934  0.28490096     0.36700
C3066       C  0.19799528  0.24190918  0.23555922     0.36600
N3067       N  0.24670435  0.19809129  0.29338819    -0.43700
N3068       N  0.18824429  0.24457182  0.22447984    -0.43700
C3069       C  0.25188365  0.26278766  0.24646440    -0.00100
C3070       C  0.26521883  0.25459338  0.25621598    -0.12000
C3071       C  0.27500086  0.26324667  0.26883090     0.02100
C3072       C  0.27328402  0.28128465  0.27101945    -0.00200
C3073       C  0.26265249  0.29025318  0.25950483    -0.11900
C3074       C  0.25250056  0.28158672  0.24704074     0.02000
H3075       H  0.26920353  0.24149742  0.25321216     0.15000
H3076       H  0.26348028  0.30432737  0.25925747     0.15000
C3077       C  0.24632910  0.29302463  0.23358496     0.36700
C3078       C  0.28724703  0.25332660  0.27897757     0.36600
N3079       N  0.24200604  0.30279896  0.22304016    -0.43700
N3080       N  0.29705217  0.24541236  0.28713775    -0.43700
loop_ 
_geom_bond_atom_site_label_1 
_geom_bond_atom_site_label_2 
_geom_bond_distance 
_geom_bond_site_symmetry_2 
_ccdc_geom_bond_type 
C1         C3033   1.581       .  S
C1         C3045   1.577       .  S
C1         C3060   1.612       .  S
C1         C3069   1.607       .  S
C2         C2985   1.591       .  S
C2         C3000   1.578       .  S
C2         C3009   1.588       .  S
C2         C3021   1.586       .  S
C3         C2940   1.578       .  S
C3         C2952   1.582       .  S
C3         C2961   1.580       .  S
C3         C2976   1.578       .  S
C4         C2889   1.583       .  S
C4         C2901   1.583       .  S
C4         C2913   1.584       .  S
C4         C2925   1.581       .  S
C5         C2844   1.571       .  S
C5         C2856   1.586       .  S
C5         C2865   1.583       .  S
C5         C2877   1.592       .  S
C6         C2796   1.588       .  S
C6         C2805   1.591       .  S
C6         C2817   1.581       .  S
C6         C2829   1.583       .  S
C7         C2745   1.569       .  S
C7         C2760   1.584       .  S
C7         C2772   1.589       .  S
C7         C2781   1.580       .  S
C8         C2700   1.588       .  S
C8         C2709   1.587       .  S
C8         C2721   1.600       .  S
C8         C2733   1.613       .  S
N9           N10   1.321       .  A
N9           C13   1.353       .  A
N9          Cu17   2.101       .  S
N10          C11   1.340       .  A
N10         Cu16   2.055       .  S
C11          C12   1.378       .  A
C11          H14   1.082       .  S
C12          C13   1.392       .  A
C12        C2673   1.479       .  S
C13          H15   1.082       .  S
Cu16         N19   2.057       .  S
Cu17         N27   2.104       .  S
Cu18         N20   2.088       .  S
Cu18         N26   2.091       .  S
N19          N20   1.319       .  A
N19          C23   1.340       .  A
N20          C21   1.350       .  A
C21          C22   1.395       .  A
C21          H24   1.080       .  S
C22          C23   1.384       .  A
C22        C2685   1.494       .  S
C23          H25   1.082       .  S
N26          N27   1.325       .  A
N26          C30   1.348       .  A
N27          C28   1.349       .  A
C28          C29   1.388       .  A
C28          H31   1.082       .  S
C29          C30   1.385       .  A
C29          C53   1.484       .  S
C30          H32   1.082       .  S
N33          N34   1.321       .  A
N33          C37   1.352       .  A
N33         Cu41   2.103       .  S
N34          C35   1.340       .  A
N34         Cu40   2.053       .  S
C35          C36   1.381       .  A
C35          H38   1.082       .  S
C36          C37   1.394       .  A
C36        C2664   1.491       .  S
C37          H39   1.082       .  S
Cu40         N43   2.056       .  S
Cu41         N51   2.104       .  S
Cu42         N44   2.084       .  S
Cu42         N50   2.085       .  S
N43          N44   1.320       .  A
N43          C47   1.343       .  A
N44          C45   1.348       .  A
C45          C46   1.389       .  A
C45          H48   1.082       .  S
C46          C47   1.383       .  A
C46        C2649   1.487       .  S
C47          H49   1.081       .  S
N50          N51   1.324       .  A
N50          C54   1.348       .  A
N51          C52   1.350       .  A
C52          C53   1.389       .  A
C52          H55   1.082       .  S
C53          C54   1.385       .  A
C54          H56   1.082       .  S
N57          N58   1.322       .  A
N57          C61   1.348       .  A
N57         Cu65   2.093       .  S
N58          C59   1.345       .  A
N58         Cu64   2.063       .  S
C59          C60   1.381       .  A
C59          H62   1.082       .  S
C60          C61   1.390       .  A
C60        C2625   1.486       .  S
C61          H63   1.082       .  S
Cu64         N67   2.061       .  S
Cu65         N75   2.093       .  S
Cu66         N68   2.078       .  S
Cu66         N74   2.078       .  S
N67          N68   1.320       .  A
N67          C71   1.340       .  A
N68          C69   1.347       .  A
C69          C70   1.392       .  A
C69          H72   1.081       .  S
C70          C71   1.387       .  A
C70        C2637   1.494       .  S
C71          H73   1.081       .  S
N74          N75   1.323       .  A
N74          C78   1.347       .  A
N75          C76   1.348       .  A
C76          C77   1.387       .  A
C76          H79   1.082       .  S
C77          C78   1.384       .  A
C77         C101   1.479       .  S
C78          H80   1.082       .  S
N81          N82   1.321       .  A
N81          C85   1.351       .  A
N81         Cu89   2.092       .  S
N82          C83   1.340       .  A
N82         Cu88   2.051       .  S
C83          C84   1.377       .  A
C83          H86   1.082       .  S
C84          C85   1.389       .  A
C84        C2613   1.478       .  S
C85          H87   1.082       .  S
Cu88         N91   2.055       .  S
Cu89         N99   2.095       .  S
Cu90         N92   2.085       .  S
Cu90         N98   2.087       .  S
N91          N92   1.318       .  A
N91          C95   1.339       .  A
N92          C93   1.349       .  A
C93          C94   1.396       .  A
C93          H96   1.079       .  S
C94          C95   1.386       .  A
C94        C2601   1.498       .  S
C95          H97   1.082       .  S
N98          N99   1.325       .  A
N98         C102   1.347       .  A
N99         C100   1.348       .  A
C100        C101   1.386       .  A
C100        H103   1.082       .  S
C101        C102   1.384       .  A
C102        H104   1.082       .  S
N105        N106   1.321       .  A
N105        C109   1.351       .  A
N105       Cu113   2.092       .  S
N106        C107   1.341       .  A
N106       Cu112   2.054       .  S
C107        C108   1.379       .  A
C107        H110   1.082       .  S
C108        C109   1.390       .  A
C108       C2580   1.480       .  S
C109        H111   1.082       .  S
Cu112       N115   2.057       .  S
Cu113       N123   2.094       .  S
Cu114       N116   2.100       .  S
Cu114       N122   2.102       .  S
N115        N116   1.321       .  A
N115        C119   1.341       .  A
N116        C117   1.353       .  A
C117        C118   1.394       .  A
C117        H120   1.082       .  S
C118        C119   1.381       .  A
C118       C2589   1.490       .  S
C119        H121   1.082       .  S
N122        N123   1.324       .  A
N122        C126   1.351       .  A
N123        C124   1.348       .  A
C124        C125   1.386       .  A
C124        H127   1.082       .  S
C125        C126   1.389       .  A
C125        C149   1.486       .  S
C126        H128   1.082       .  S
N129        N130   1.320       .  A
N129        C133   1.354       .  A
N129       Cu137   2.100       .  S
N130        C131   1.337       .  A
N130       Cu136   2.044       .  S
C131        C132   1.376       .  A
C131        H134   1.082       .  S
C132        C133   1.392       .  A
C132       C2568   1.479       .  S
C133        H135   1.082       .  S
Cu136       N139   2.050       .  S
Cu137       N147   2.104       .  S
Cu138       N140   2.091       .  S
Cu138       N146   2.096       .  S
N139        N140   1.318       .  A
N139        C143   1.338       .  A
N140        C141   1.352       .  A
C141        C142   1.396       .  A
C141        H144   1.080       .  S
C142        C143   1.384       .  A
C142       C2553   1.495       .  S
C143        H145   1.082       .  S
N146        N147   1.326       .  A
N146        C150   1.348       .  A
N147        C148   1.350       .  A
C148        C149   1.388       .  A
C148        H151   1.082       .  S
C149        C150   1.387       .  A
C150        H152   1.082       .  S
N153        N154   1.321       .  A
N153        C157   1.352       .  A
N153       Cu161   2.102       .  S
N154        C155   1.340       .  A
N154       Cu160   2.053       .  S
C155        C156   1.381       .  A
C155        H158   1.082       .  S
C156        C157   1.395       .  A
C156       C2541   1.491       .  S
C157        H159   1.082       .  S
Cu160       N163   2.054       .  S
Cu161       N171   2.103       .  S
Cu162       N164   2.065       .  S
Cu162       N170   2.068       .  S
N163        N164   1.320       .  A
N163        C167   1.339       .  A
N164        C165   1.347       .  A
C165        C166   1.383       .  A
C165        H168   1.082       .  S
C166        C167   1.379       .  A
C166       C2532   1.470       .  S
C167        H169   1.082       .  S
N170        N171   1.324       .  A
N170        C174   1.342       .  A
N171        C172   1.351       .  A
C172        C173   1.389       .  A
C172        H175   1.082       .  S
C173        C174   1.381       .  A
C173        C197   1.477       .  S
C174        H176   1.082       .  S
N177        N178   1.320       .  A
N177        C181   1.348       .  A
N177       Cu185   2.076       .  S
N178        C179   1.340       .  A
N178       Cu184   2.057       .  S
C179        C180   1.384       .  A
C179        H182   1.082       .  S
C180        C181   1.391       .  A
C180       C2505   1.489       .  S
C181        H183   1.081       .  S
Cu184       N187   2.054       .  S
Cu185       N195   2.079       .  S
Cu186       N188   2.090       .  S
Cu186       N194   2.091       .  S
N187        N188   1.321       .  A
N187        C191   1.341       .  A
N188        C189   1.349       .  A
C189        C190   1.391       .  A
C189        H192   1.082       .  S
C190        C191   1.382       .  A
C190       C2517   1.488       .  S
C191        H193   1.081       .  S
N194        N195   1.324       .  A
N194        C198   1.349       .  A
N195        C196   1.344       .  A
C196        C197   1.384       .  A
C196        H199   1.082       .  S
C197        C198   1.386       .  A
C198        H200   1.082       .  S
N201        N202   1.321       .  A
N201        C205   1.348       .  A
N201       Cu209   2.079       .  S
N202        C203   1.342       .  A
N202       Cu208   2.063       .  S
C203        C204   1.381       .  A
C203        H206   1.082       .  S
C204        C205   1.386       .  A
C204       C2493   1.477       .  S
C205        H207   1.082       .  S
Cu208       N211   2.063       .  S
Cu209       N219   2.080       .  S
Cu210       N212   2.085       .  S
Cu210       N218   2.087       .  S
N211        N212   1.321       .  A
N211        C215   1.340       .  A
N212        C213   1.351       .  A
C213        C214   1.388       .  A
C213        H216   1.082       .  S
C214        C215   1.380       .  A
C214       C2484   1.478       .  S
C215        H217   1.082       .  S
N218        N219   1.323       .  A
N218        C222   1.348       .  A
N219        C220   1.346       .  A
C220        C221   1.384       .  A
C220        H223   1.082       .  S
C221        C222   1.386       .  A
C221        C245   1.477       .  S
C222        H224   1.082       .  S
N225        N226   1.321       .  A
N225        C229   1.347       .  A
N225       Cu233   2.082       .  S
N226        C227   1.342       .  A
N226       Cu232   2.057       .  S
C227        C228   1.381       .  A
C227        H230   1.081       .  S
C228        C229   1.388       .  A
C228       C2457   1.484       .  S
C229        H231   1.082       .  S
Cu232       N235   2.056       .  S
Cu233       N243   2.082       .  S
Cu234       N236   2.087       .  S
Cu234       N242   2.089       .  S
N235        N236   1.321       .  A
N235        C239   1.339       .  A
N236        C237   1.351       .  A
C237        C238   1.389       .  A
C237        H240   1.082       .  S
C238        C239   1.379       .  A
C238       C2469   1.479       .  S
C239        H241   1.082       .  S
N242        N243   1.324       .  A
N242        C246   1.346       .  A
N243        C244   1.347       .  A
C244        C245   1.385       .  A
C244        H247   1.082       .  S
C245        C246   1.385       .  A
C246        H248   1.082       .  S
N249        N250   1.322       .  A
N249        C253   1.350       .  A
N249       Cu257   2.072       .  S
N250        C251   1.339       .  A
N250       Cu256   2.061       .  S
C251        C252   1.377       .  A
C251        H254   1.082       .  S
C252        C253   1.383       .  A
C252       C2433   1.470       .  S
C253        H255   1.082       .  S
Cu256       N259   2.057       .  S
Cu257       N267   2.075       .  S
Cu258       N260   2.074       .  S
Cu258       N266   2.076       .  S
N259        N260   1.321       .  A
N259        C263   1.341       .  A
N260        C261   1.346       .  A
C261        C262   1.385       .  A
C261        H264   1.082       .  S
C262        C263   1.379       .  A
C262       C2445   1.471       .  S
C263        H265   1.082       .  S
N266        N267   1.323       .  A
N266        C270   1.346       .  A
N267        C268   1.344       .  A
C268        C269   1.382       .  A
C268        H271   1.082       .  S
C269        C270   1.383       .  A
C269        C293   1.470       .  S
C270        H272   1.082       .  S
N273        N274   1.321       .  A
N273        C277   1.348       .  A
N273       Cu281   2.071       .  S
N274        C275   1.339       .  A
N274       Cu280   2.056       .  S
C275        C276   1.379       .  A
C275        H278   1.082       .  S
C276        C277   1.385       .  A
C276       C2421   1.474       .  S
C277        H279   1.082       .  S
Cu280       N283   2.059       .  S
Cu281       N291   2.072       .  S
Cu282       N284   2.079       .  S
Cu282       N290   2.082       .  S
N283        N284   1.321       .  A
N283        C287   1.340       .  A
N284        C285   1.351       .  A
C285        C286   1.387       .  A
C285        H288   1.082       .  S
C286        C287   1.378       .  A
C286       C2409   1.476       .  S
C287        H289   1.082       .  S
N290        N291   1.323       .  A
N290        C294   1.345       .  A
N291        C292   1.345       .  A
C292        C293   1.382       .  A
C292        H295   1.082       .  S
C293        C294   1.383       .  A
C294        H296   1.082       .  S
N297        N298   1.319       .  A
N297        C301   1.349       .  A
N297       Cu305   2.081       .  S
N298        C299   1.338       .  A
N298       Cu304   2.050       .  S
C299        C300   1.380       .  A
C299        H302   1.083       .  S
C300        C301   1.389       .  A
C300       C2388   1.475       .  S
C301        H303   1.082       .  S
Cu304       N307   2.058       .  S
Cu305       N315   2.085       .  S
Cu306       N308   2.094       .  S
Cu306       N314   2.096       .  S
N307        N308   1.321       .  A
N307        C311   1.340       .  A
N308        C309   1.352       .  A
C309        C310   1.392       .  A
C309        H312   1.082       .  S
C310        C311   1.380       .  A
C310       C2397   1.485       .  S
C311        H313   1.082       .  S
N314        N315   1.325       .  A
N314        C318   1.351       .  A
N315        C316   1.344       .  A
C316        C317   1.384       .  A
C316        H319   1.082       .  S
C317        C318   1.387       .  A
C317        C341   1.480       .  S
C318        H320   1.082       .  S
N321        N322   1.322       .  A
N321        C325   1.351       .  A
N321       Cu329   2.098       .  S
N322        C323   1.339       .  A
N322       Cu328   2.054       .  S
C323        C324   1.381       .  A
C323        H326   1.082       .  S
C324        C325   1.394       .  A
C324       C2373   1.490       .  S
C325        H327   1.082       .  S
Cu328       N331   2.058       .  S
Cu329       N339   2.098       .  S
Cu330       N332   2.075       .  S
Cu330       N338   2.076       .  S
N331        N332   1.320       .  A
N331        C335   1.344       .  A
N332        C333   1.345       .  A
C333        C334   1.388       .  A
C333        H336   1.082       .  S
C334        C335   1.382       .  A
C334       C2361   1.482       .  S
C335        H337   1.082       .  S
N338        N339   1.323       .  A
N338        C342   1.343       .  A
N339        C340   1.351       .  A
C340        C341   1.389       .  A
C340        H343   1.082       .  S
C341        C342   1.383       .  A
C342        H344   1.082       .  S
C345       C2424   1.537       .  S
C345        C346   1.538       .  S
C345        C351   1.533       .  S
C345        C349   1.543       .  S
C346        H353   1.086       .  S
C346        C347   1.367       .  D
C347        C348   1.546       .  S
C347       C2376   1.494       .  S
C348        C352   1.547       .  S
C348        C350   1.540       .  S
C348        H354   1.108       .  S
C349        H355   1.081       .  S
C349        C350   1.361       .  D
C350       C2784   1.486       .  S
C351        H356   1.086       .  S
C351        C352   1.367       .  D
C352       C2352   1.495       .  S
N357        N358   1.319       .  A
N357        C361   1.352       .  A
N357       Cu365   2.087       .  S
N358        C359   1.339       .  A
N358       Cu364   2.062       .  S
C359        C360   1.385       .  A
C359        H362   1.081       .  S
C360        C361   1.394       .  A
C360       C2325   1.494       .  S
C361        H363   1.082       .  S
Cu364       N367   2.051       .  S
Cu365       N375   2.090       .  S
Cu366       N368   2.095       .  S
Cu366       N374   2.100       .  S
N367        N368   1.319       .  A
N367        C371   1.338       .  A
N368        C369   1.353       .  A
C369        C370   1.396       .  A
C369        H372   1.082       .  S
C370        C371   1.384       .  A
C370       C2337   1.496       .  S
C371        H373   1.079       .  S
N374        N375   1.324       .  A
N374        C378   1.350       .  A
N375        C376   1.348       .  A
C376        C377   1.386       .  A
C376        H379   1.082       .  S
C377        C378   1.388       .  A
C377        C401   1.485       .  S
C378        H380   1.082       .  S
N381        N382   1.321       .  A
N381        C385   1.350       .  A
N381       Cu389   2.093       .  S
N382        C383   1.342       .  A
N382       Cu388   2.060       .  S
C383        C384   1.383       .  A
C383        H386   1.081       .  S
C384        C385   1.392       .  A
C384       C2301   1.490       .  S
C385        H387   1.082       .  S
Cu388       N391   2.054       .  S
Cu389       N399   2.094       .  S
Cu390       N392   2.099       .  S
Cu390       N398   2.101       .  S
N391        N392   1.321       .  A
N391        C395   1.341       .  A
N392        C393   1.351       .  A
C393        C394   1.392       .  A
C393        H396   1.082       .  S
C394        C395   1.379       .  A
C394       C2313   1.482       .  S
C395        H397   1.082       .  S
N398        N399   1.324       .  A
N398        C402   1.349       .  A
N399        C400   1.349       .  A
C400        C401   1.387   1_554  A
C400        H403   1.082       .  S
C401        C402   1.388   1_556  A
C402        H404   1.082       .  S
N405        N406   1.319       .  A
N405        C409   1.350       .  A
N405       Cu413   2.084       .  S
N406        C407   1.339       .  A
N406       Cu412   2.043       .  S
C407        C408   1.379       .  A
C407        H410   1.082       .  S
C408        C409   1.391       .  A
C408       C2277   1.482       .  S
C409        H411   1.082       .  S
Cu412       N415   2.046       .  S
Cu413       N423   2.088       .  S
Cu414       N416   2.093       .  S
Cu414       N422   2.099       .  S
N415        N416   1.318       .  A
N415        C419   1.334       .  A
N416        C417   1.355       .  A
C417        C418   1.400       .  A
C417        H420   1.080       .  S
C418        C419   1.384       .  A
C418       C2289   1.500       .  S
C419        H421   1.081       .  S
N422        N423   1.325       .  A
N422        C426   1.348       .  A
N423        C424   1.347       .  A
C424        C425   1.384       .  A
C424        H427   1.082       .  S
C425        C426   1.387       .  A
C425        C449   1.480   1_565  S
C426        H428   1.082       .  S
N429        N430   1.321       .  A
N429        C433   1.351       .  A
N429       Cu437   2.085       .  S
N430        C431   1.339       .  A
N430       Cu436   2.055       .  S
C431        C432   1.380       .  A
C431        H434   1.082       .  S
C432        C433   1.389       .  A
C432       C2253   1.483       .  S
C433        H435   1.082       .  S
Cu436       N439   2.057       .  S
Cu437       N447   2.087       .  S
Cu438       N440   2.091       .  S
Cu438       N446   2.093       .  S
N439        N440   1.321       .  A
N439        C443   1.342       .  A
N440        C441   1.349       .  A
C441        C442   1.391       .  A
C441        H444   1.082       .  S
C442        C443   1.379       .  A
C442       C2265   1.483       .  S
C443        H445   1.082       .  S
N446        N447   1.324       .  A
N446        C450   1.348       .  A
N447        C448   1.347       .  A
C448        C449   1.385       .  A
C448        H451   1.082       .  S
C449        C450   1.387       .  A
C450        H452   1.082       .  S
N453        N454   1.321       .  A
N453        C457   1.353       .  A
N453       Cu461   2.106       .  S
N454        C455   1.340       .  A
N454       Cu460   2.053       .  S
C455        C456   1.379       .  A
C455        H458   1.082       .  S
C456        C457   1.395       .  A
C456       C2241   1.489       .  S
C457        H459   1.082       .  S
Cu460       N463   2.054       .  S
Cu461       N471   2.108       .  S
Cu462       N464   2.085       .  S
Cu462       N470   2.088       .  S
N463        N464   1.319       .  A
N463        C467   1.338       .  A
N464        C465   1.351       .  A
C465        C466   1.394       .  A
C465        H468   1.081       .  S
C466        C467   1.384       .  A
C466       C2229   1.493       .  S
C467        H469   1.082       .  S
N470        N471   1.325       .  A
N470        C474   1.344       .  A
N471        C472   1.354       .  A
C472        C473   1.390       .  A
C472        H475   1.082       .  S
C473        C474   1.385       .  A
C473        C497   1.485       .  S
C474        H476   1.082       .  S
N477        N478   1.321       .  A
N477        C481   1.349       .  A
N477       Cu485   2.076       .  S
N478        C479   1.340       .  A
N478       Cu484   2.059       .  S
C479        C480   1.380       .  A
C479        H482   1.082       .  S
C480        C481   1.386       .  A
C480       C2205   1.475       .  S
C481        H483   1.082       .  S
Cu484       N487   2.057       .  S
Cu485       N495   2.079       .  S
Cu486       N488   2.108       .  S
Cu486       N494   2.109       .  S
N487        N488   1.321       .  A
N487        C491   1.341       .  A
N488        C489   1.351       .  A
C489        C490   1.398       .  A
C489        H492   1.081       .  S
C490        C491   1.386       .  A
C490       C2217   1.502       .  S
C491        H493   1.081       .  S
N494        N495   1.323       .  A
N494        C498   1.354       .  A
N495        C496   1.343       .  A
C496        C497   1.383       .  A
C496        H499   1.082       .  S
C497        C498   1.392       .  A
C498        H500   1.082       .  S
N501        N502   1.321       .  A
N501        C505   1.350       .  A
N501       Cu509   2.089       .  S
N502        C503   1.340       .  A
N502       Cu508   2.053       .  S
C503        C504   1.379       .  A
C503        H506   1.082       .  S
C504        C505   1.391       .  A
C504       C2349   1.482       .  S
C505        H507   1.082       .  S
Cu508       N511   2.056       .  S
Cu509       N519   2.091       .  S
Cu510       N512   2.095       .  S
Cu510       N518   2.098       .  S
N511        N512   1.320       .  A
N511        C515   1.340       .  A
N512        C513   1.353       .  A
C513        C514   1.393       .  A
C513        H516   1.082       .  S
C514        C515   1.382       .  A
C514       C2193   1.490       .  S
C515        H517   1.081       .  S
N518        N519   1.324       .  A
N518        C522   1.349       .  A
N519        C520   1.348       .  A
C520        C521   1.386       .  A
C520        H523   1.082       .  S
C521        C522   1.387       .  A
C521        C545   1.483       .  S
C522        H524   1.082       .  S
N525        N526   1.321       .  A
N525        C529   1.351       .  A
N525       Cu533   2.094       .  S
N526        C527   1.340       .  A
N526       Cu532   2.060       .  S
C527        C528   1.383       .  A
C527        H530   1.082       .  S
C528        C529   1.394       .  A
C528       C2169   1.493       .  S
C529        H531   1.081       .  S
Cu532       N535   2.060       .  S
Cu533       N543   2.096       .  S
Cu534       N536   2.089       .  S
Cu534       N542   2.092       .  S
N535        N536   1.319       .  A
N535        C539   1.340       .  A
N536        C537   1.351       .  A
C537        C538   1.395       .  A
C537        H540   1.081       .  S
C538        C539   1.386       .  A
C538       C2181   1.497       .  S
C539        H541   1.081       .  S
N542        N543   1.324       .  A
N542        C546   1.348       .  A
N543        C544   1.349       .  A
C544        C545   1.388       .  A
C544        H547   1.082       .  S
C545        C546   1.386       .  A
C546        H548   1.082       .  S
N549        N550   1.322       .  A
N549        C553   1.349       .  A
N549       Cu557   2.079       .  S
N550        C551   1.340       .  A
N550       Cu556   2.061       .  S
C551        C552   1.379       .  A
C551        H554   1.082       .  S
C552        C553   1.386       .  A
C552       C2157   1.475       .  S
C553        H555   1.082       .  S
Cu556       N559   2.061       .  S
Cu557       N567   2.081       .  S
Cu558       N560   2.084       .  S
Cu558       N566   2.086       .  S
N559        N560   1.321       .  A
N559        C563   1.343       .  A
N560        C561   1.348       .  A
C561        C562   1.389       .  A
C561        H564   1.082       .  S
C562        C563   1.381       .  A
C562       C2145   1.480       .  S
C563        H565   1.082       .  S
N566        N567   1.323       .  A
N566        C570   1.346       .  A
N567        C568   1.348       .  A
C568        C569   1.385       .  A
C568        H571   1.082       .  S
C569        C570   1.386       .  A
C569        C593   1.478       .  S
C570        H572   1.082       .  S
N573        N574   1.319       .  A
N573        C577   1.349       .  A
N573       Cu581   2.079       .  S
N574        C575   1.339       .  A
N574       Cu580   2.056       .  S
C575        C576   1.383       .  A
C575        H578   1.082       .  S
C576        C577   1.392       .  A
C576       C2121   1.489       .  S
C577        H579   1.081       .  S
Cu580       N583   2.057       .  S
Cu581       N591   2.081       .  S
Cu582       N584   2.095       .  S
Cu582       N590   2.097       .  S
N583        N584   1.321       .  A
N583        C587   1.341       .  A
N584        C585   1.352       .  A
C585        C586   1.391       .  A
C585        H588   1.082       .  S
C586        C587   1.380       .  A
C586       C2133   1.485       .  S
C587        H589   1.082       .  S
N590        N591   1.325       .  A
N590        C594   1.349       .  A
N591        C592   1.345       .  A
C592        C593   1.383       .  A
C592        H595   1.082       .  S
C593        C594   1.387       .  A
C594        H596   1.082       .  S
N597        N598   1.321       .  A
N597        C601   1.353       .  A
N597       Cu605   2.094       .  S
N598        C599   1.339       .  A
N598       Cu604   2.055       .  S
C599        C600   1.379       .  A
C599        H602   1.082       .  S
C600        C601   1.392       .  A
C600       C2097   1.486       .  S
C601        H603   1.082       .  S
Cu604       N607   2.053       .  S
Cu605       N615   2.096       .  S
Cu606       N608   2.079       .  S
Cu606       N614   2.082       .  S
N607        N608   1.320       .  A
N607        C611   1.340       .  A
N608        C609   1.349       .  A
C609        C610   1.387       .  A
C609        H612   1.082       .  S
C610        C611   1.378       .  A
C610       C2109   1.474       .  S
C611        H613   1.082       .  S
N614        N615   1.325       .  A
N614        C618   1.345       .  A
N615        C616   1.349       .  A
C616        C617   1.387       .  A
C616        H619   1.082       .  S
C617        C618   1.383       .  A
C617        C641   1.479       .  S
C618        H620   1.082       .  S
N621        N622   1.320       .  A
N621        C625   1.351       .  A
N621       Cu629   2.088       .  S
N622        C623   1.340       .  A
N622       Cu628   2.053       .  S
C623        C624   1.379       .  A
C623        H626   1.082       .  S
C624        C625   1.390       .  A
C624       C2088   1.480       .  S
C625        H627   1.082       .  S
Cu628       N631   2.056       .  S
Cu629       N639   2.091       .  S
Cu630       N632   2.083       .  S
Cu630       N638   2.086       .  S
N631        N632   1.319       .  A
N631        C635   1.338       .  A
N632        C633   1.350       .  A
C633        C634   1.394       .  A
C633        H636   1.080       .  S
C634        C635   1.384       .  A
C634       C2073   1.492       .  S
C635        H637   1.082       .  S
N638        N639   1.325       .  A
N638        C642   1.348       .  A
N639        C640   1.346       .  A
C640        C641   1.385       .  A
C640        H643   1.082       .  S
C641        C642   1.385       .  A
C642        H644   1.082       .  S
N645        N646   1.319       .  A
N645        C649   1.353       .  A
N645       Cu653   2.098       .  S
N646        C647   1.339       .  A
N646       Cu652   2.048       .  S
C647        C648   1.381       .  A
C647        H650   1.081       .  S
C648        C649   1.395       .  A
C648       C2061   1.492       .  S
C649        H651   1.082       .  S
Cu652       N655   2.045       .  S
Cu653       N663   2.102       .  S
Cu654       N656   2.089       .  S
Cu654       N662   2.092       .  S
N655        N656   1.318       .  A
N655        C659   1.337       .  A
N656        C657   1.351       .  A
C657        C658   1.398       .  A
C657        H660   1.080       .  S
C658        C659   1.383       .  A
C658       C2049   1.496       .  S
C659        H661   1.082       .  S
N662        N663   1.326       .  A
N662        C666   1.347       .  A
N663        C664   1.350       .  A
C664        C665   1.388       .  A
C664        H667   1.082       .  S
C665        C666   1.384       .  A
C665        C689   1.483       .  S
C666        H668   1.082       .  S
N669        N670   1.322       .  A
N669        C673   1.350       .  A
N669       Cu677   2.098       .  S
N670        C671   1.343       .  A
N670       Cu676   2.059       .  S
C671        C672   1.380       .  A
C671        H674   1.082       .  S
C672        C673   1.391       .  A
C672       C2025   1.484       .  S
C673        H675   1.082       .  S
Cu676       N679   2.059       .  S
Cu677       N687   2.099       .  S
Cu678       N680   2.082       .  S
Cu678       N686   2.083       .  S
N679        N680   1.322       .  A
N679        C683   1.342       .  A
N680        C681   1.348       .  A
C681        C682   1.387       .  A
C681        H684   1.082       .  S
C682        C683   1.379       .  A
C682       C2037   1.479       .  S
C683        H685   1.082       .  S
N686        N687   1.323       .  A
N686        C690   1.348       .  A
N687        C688   1.348       .  A
C688        C689   1.388       .  A
C688        H691   1.082       .  S
C689        C690   1.385       .  A
C690        H692   1.082       .  S
C693       C2085   1.546       .  S
C693        C694   1.543       .  S
C693        C699   1.548       .  S
C693        C697   1.536       .  S
C694        H701   1.084       .  S
C694        C695   1.375       .  D
C695        C696   1.550       .  S
C695       C2184   1.512       .  S
C696        C700   1.537       .  S
C696        C698   1.546       .  S
C696        H702   1.103       .  S
C697        H703   1.086       .  S
C697        C698   1.361       .  D
C698       C2736   1.490       .  S
C699        H704   1.081       .  S
C699        C700   1.363       .  D
C700       C2040   1.490       .  S
N705        N706   1.320       .  A
N705        C709   1.349       .  A
N705       Cu713   2.106       .  S
N706        C707   1.344       .  A
N706       Cu712   2.045       .  S
C707        C708   1.382       .  A
C707        H710   1.081       .  S
C708        C709   1.394       .  A
C708       C2001   1.492       .  S
C709        H711   1.082       .  S
Cu712       N715   2.048       .  S
Cu713       N723   2.108       .  S
Cu714       N716   2.070       .  S
Cu714       N722   2.072       .  S
N715        N716   1.319       .  A
N715        C719   1.336       .  A
N716        C717   1.348       .  A
C717        C718   1.391       .  A
C717        H720   1.081       .  S
C718        C719   1.384       .  A
C718       C2013   1.489       .  S
C719        H721   1.080       .  S
N722        N723   1.324       .  A
N722        C726   1.343       .  A
N723        C724   1.352       .  A
C724        C725   1.391       .  A
C724        H727   1.082       .  S
C725        C726   1.382       .  A
C725        C749   1.481   1_556  S
C726        H728   1.082       .  S
N729        N730   1.319       .  A
N729        C733   1.352       .  A
N729       Cu737   2.091       .  S
N730        C731   1.339       .  A
N730       Cu736   2.050       .  S
C731        C732   1.378       .  A
C731        H734   1.082       .  S
C732        C733   1.391       .  A
C732       C1989   1.477       .  S
C733        H735   1.082       .  S
Cu736       N739   2.055       .  S
Cu737       N747   2.094       .  S
Cu738       N740   2.089       .  S
Cu738       N746   2.092       .  S
N739        N740   1.320       .  A
N739        C743   1.339       .  A
N740        C741   1.352       .  A
C741        C742   1.393       .  A
C741        H744   1.082       .  S
C742        C743   1.380       .  A
C742       C1977   1.487       .  S
C743        H745   1.082       .  S
N746        N747   1.325       .  A
N746        C750   1.350       .  A
N747        C748   1.346       .  A
C748        C749   1.385       .  A
C748        H751   1.082       .  S
C749        C750   1.386       .  A
C750        H752   1.082       .  S
N753        N754   1.321       .  A
N753        C757   1.348       .  A
N753       Cu761   2.085       .  S
N754        C755   1.342       .  A
N754       Cu760   2.053       .  S
C755        C756   1.380       .  A
C755        H758   1.082       .  S
C756        C757   1.390       .  A
C756       C1953   1.483       .  S
C757        H759   1.082       .  S
Cu760       N763   2.054       .  S
Cu761       N771   2.086       .  S
Cu762       N764   2.082       .  S
Cu762       N770   2.083       .  S
N763        N764   1.322       .  A
N763        C767   1.340       .  A
N764        C765   1.349       .  A
C765        C766   1.387       .  A
C765        H768   1.082       .  S
C766        C767   1.378       .  A
C766       C1965   1.476       .  S
C767        H769   1.082       .  S
N770        N771   1.324       .  A
N770        C774   1.347       .  A
N771        C772   1.347       .  A
C772        C773   1.385       .  A
C772        H775   1.082       .  S
C773        C774   1.385       .  A
C773        C797   1.477   1_655  S
C774        H776   1.082       .  S
N777        N778   1.320       .  A
N777        C781   1.348       .  A
N777       Cu785   2.082       .  S
N778        C779   1.341       .  A
N778       Cu784   2.054       .  S
C779        C780   1.382       .  A
C779        H782   1.081       .  S
C780        C781   1.390       .  A
C780       C1929   1.487       .  S
C781        H783   1.082       .  S
Cu784       N787   2.055       .  S
Cu785       N795   2.084       .  S
Cu786       N788   2.083       .  S
Cu786       N794   2.085       .  S
N787        N788   1.321       .  A
N787        C791   1.339       .  A
N788        C789   1.351       .  A
C789        C790   1.389       .  A
C789        H792   1.082       .  S
C790        C791   1.380       .  A
C790       C1944   1.481       .  S
C791        H793   1.082       .  S
N794        N795   1.324       .  A
N794        C798   1.347       .  A
N795        C796   1.347       .  A
C796        C797   1.385       .  A
C796        H799   1.082       .  S
C797        C798   1.385       .  A
C798        H800   1.082       .  S
N801        N802   1.320       .  A
N801        C805   1.349       .  A
N801       Cu809   2.083       .  S
N802        C803   1.340       .  A
N802       Cu808   2.054       .  S
C803        C804   1.382       .  A
C803        H806   1.082       .  S
C804        C805   1.391       .  A
C804       C1905   1.487       .  S
C805        H807   1.081       .  S
Cu808       N811   2.051       .  S
Cu809       N819   2.086       .  S
Cu810       N812   2.106       .  S
Cu810       N818   2.108       .  S
N811        N812   1.321       .  A
N811        C815   1.341       .  A
N812        C813   1.353       .  A
C813        C814   1.394       .  A
C813        H816   1.082       .  S
C814        C815   1.381       .  A
C814       C1917   1.491       .  S
C815        H817   1.081       .  S
N818        N819   1.324       .  A
N818        C822   1.350       .  A
N819        C820   1.349       .  A
C820        C821   1.385       .  A
C820        H823   1.082       .  S
C821        C822   1.390       .  A
C821        C845   1.486   1_565  S
C822        H824   1.082       .  S
N825        N826   1.319       .  A
N825        C829   1.351       .  A
N825       Cu833   2.085       .  S
N826        C827   1.336       .  A
N826       Cu832   2.053       .  S
C827        C828   1.385       .  A
C827        H830   1.082       .  S
C828        C829   1.397       .  A
C828       C1893   1.498       .  S
C829        H831   1.079       .  S
Cu832       N835   2.050       .  S
Cu833       N843   2.088       .  S
Cu834       N836   2.110       .  S
Cu834       N842   2.112       .  S
N835        N836   1.320       .  A
N835        C839   1.343       .  A
N836        C837   1.352       .  A
C837        C838   1.397       .  A
C837        H840   1.082       .  S
C838        C839   1.380       .  A
C838       C1881   1.493       .  S
C839        H841   1.082       .  S
N842        N843   1.325       .  A
N842        C846   1.351       .  A
N843        C844   1.348       .  A
C844        C845   1.384       .  A
C844        H847   1.082       .  S
C845        C846   1.390       .  A
C846        H848   1.082       .  S
N849        N850   1.320       .  A
N849        C853   1.346       .  A
N849       Cu857   2.077       .  S
N850        C851   1.340       .  A
N850       Cu856   2.056       .  S
C851        C852   1.382       .  A
C851        H854   1.082       .  S
C852        C853   1.387       .  A
C852       C1857   1.473       .  S
C853        H855   1.082       .  S
Cu856       N859   2.062       .  S
Cu857       N867   2.078       .  S
Cu858       N860   2.080       .  S
Cu858       N866   2.081       .  S
N859        N860   1.322       .  A
N859        C863   1.343       .  A
N860        C861   1.347       .  A
C861        C862   1.387       .  A
C861        H864   1.082       .  S
C862        C863   1.382       .  A
C862       C1869   1.483       .  S
C863        H865   1.082       .  S
N866        N867   1.323       .  A
N866        C870   1.349       .  A
N867        C868   1.343       .  A
C868        C869   1.383       .  A
C868        H871   1.082       .  S
C869        C870   1.385       .  A
C869        C893   1.475   1_556  S
C870        H872   1.082       .  S
N873        N874   1.322       .  A
N873        C877   1.351       .  A
N873       Cu881   2.096       .  S
N874        C875   1.341       .  A
N874       Cu880   2.052       .  S
C875        C876   1.379       .  A
C875        H878   1.082       .  S
C876        C877   1.391       .  A
C876       C1845   1.484       .  S
C877        H879   1.082       .  S
Cu880       N883   2.053       .  S
Cu881       N891   2.097       .  S
Cu882       N884   2.064       .  S
Cu882       N890   2.066       .  S
N883        N884   1.319       .  A
N883        C887   1.339       .  A
N884        C885   1.346       .  A
C885        C886   1.387       .  A
C885        H888   1.081       .  S
C886        C887   1.381       .  A
C886       C1833   1.479       .  S
C887        H889   1.082       .  S
N890        N891   1.323       .  A
N890        C894   1.342       .  A
N891        C892   1.350       .  A
C892        C893   1.388       .  A
C892        H895   1.082       .  S
C893        C894   1.380       .  A
C894        H896   1.082       .  S
N897        N898   1.320       .  A
N897        C901   1.352       .  A
N897       Cu905   2.094       .  S
N898        C899   1.340       .  A
N898       Cu904   2.056       .  S
C899        C900   1.383       .  A
C899        H902   1.082       .  S
C900        C901   1.394       .  A
C900       C1809   1.493       .  S
C901        H903   1.081       .  S
Cu904       N907   2.054       .  S
Cu905       N915   2.097       .  S
Cu906       N908   2.081       .  S
Cu906       N914   2.083       .  S
N907        N908   1.321       .  A
N907        C911   1.339       .  A
N908        C909   1.350       .  A
C909        C910   1.388       .  A
C909        H912   1.082       .  S
C910        C911   1.380       .  A
C910       C1821   1.482       .  S
C911        H913   1.082       .  S
N914        N915   1.324       .  A
N914        C918   1.348       .  A
N915        C916   1.348       .  A
C916        C917   1.387       .  A
C916        H919   1.082       .  S
C917        C918   1.385       .  A
C917        C941   1.480   1_655  S
C918        H920   1.082       .  S
N921        N922   1.320       .  A
N921        C925   1.351       .  A
N921       Cu929   2.096       .  S
N922        C923   1.340       .  A
N922       Cu928   2.054       .  S
C923        C924   1.383       .  A
C923        H926   1.082       .  S
C924        C925   1.393       .  A
C924       C1800   1.490       .  S
C925        H927   1.082       .  S
Cu928       N931   2.058       .  S
Cu929       N939   2.099       .  S
Cu930       N932   2.079       .  S
Cu930       N938   2.082       .  S
N931        N932   1.321       .  A
N931        C935   1.339       .  A
N932        C933   1.350       .  A
C933        C934   1.387       .  A
C933        H936   1.082       .  S
C934        C935   1.380       .  A
C934       C1785   1.479       .  S
C935        H937   1.082       .  S
N938        N939   1.324       .  A
N938        C942   1.346       .  A
N939        C940   1.349       .  A
C940        C941   1.388       .  A
C940        H943   1.082       .  S
C941        C942   1.383       .  A
C942        H944   1.082       .  S
N945        N946   1.322       .  A
N945        C949   1.349       .  A
N945       Cu953   2.092       .  S
N946        C947   1.343       .  A
N946       Cu952   2.059       .  S
C947        C948   1.380       .  A
C947        H950   1.082       .  S
C948        C949   1.389       .  A
C948       C1773   1.481       .  S
C949        H951   1.082       .  S
Cu952       N955   2.060       .  S
Cu953       N963   2.092       .  S
Cu954       N956   2.082       .  S
Cu954       N962   2.083       .  S
N955        N956   1.321       .  A
N955        C959   1.341       .  A
N956        C957   1.348       .  A
C957        C958   1.391       .  A
C957        H960   1.081       .  S
C958        C959   1.384       .  A
C958       C1761   1.490       .  S
C959        H961   1.082       .  S
N962        N963   1.323       .  A
N962        C966   1.346       .  A
N963        C964   1.350       .  A
C964        C965   1.388       .  A
C964        H967   1.082       .  S
C965        C966   1.385       .  A
C965        C989   1.480   1_556  S
C966        H968   1.082       .  S
N969        N970   1.322       .  A
N969        C973   1.347       .  A
N969       Cu977   2.087       .  S
N970        C971   1.342       .  A
N970       Cu976   2.057       .  S
C971        C972   1.379       .  A
C971        H974   1.082       .  S
C972        C973   1.388       .  A
C972       C1749   1.481       .  S
C973        H975   1.082       .  S
Cu976       N979   2.057       .  S
Cu977       N987   2.087       .  S
Cu978       N980   2.086       .  S
Cu978       N986   2.086       .  S
N979        N980   1.321       .  A
N979        C983   1.344       .  A
N980        C981   1.347       .  A
C981        C982   1.389       .  A
C981        H984   1.082       .  S
C982        C983   1.380       .  A
C982       C1737   1.482       .  S
C983        H985   1.082       .  S
N986        N987   1.323       .  A
N986        C990   1.346       .  A
N987        C988   1.349       .  A
C988        C989   1.387       .  A
C988        H991   1.082       .  S
C989        C990   1.386       .  A
C990        H992   1.082       .  S
N993        N994   1.320       .  A
N993        C997   1.346       .  A
N993      Cu1001   2.064       .  S
N994        C995   1.339       .  A
N994      Cu1000   2.060       .  S
C995        C996   1.382       .  A
C995        H998   1.082       .  S
C996        C997   1.385       .  A
C996       C1713   1.471       .  S
C997        H999   1.082       .  S
Cu1000     N1003   2.066       .  S
Cu1001     N1011   2.065       .  S
Cu1002     N1004   2.089       .  S
Cu1002     N1010   2.089       .  S
N1003      N1004   1.322       .  A
N1003      C1007   1.344       .  A
N1004      C1005   1.349       .  A
C1005      C1006   1.390       .  A
C1005      H1008   1.082       .  S
C1006      C1007   1.381       .  A
C1006      C1725   1.485       .  S
C1007      H1009   1.082       .  S
N1010      N1011   1.323       .  A
N1010      C1014   1.350       .  A
N1011      C1012   1.341       .  A
C1012      C1013   1.380       .  A
C1012      H1015   1.082       .  S
C1013      C1014   1.387       .  A
C1013      C1037   1.474   1_565  S
C1014      H1016   1.082       .  S
N1017      N1018   1.322       .  A
N1017      C1021   1.351       .  A
N1017     Cu1025   2.085       .  S
N1018      C1019   1.340       .  A
N1018     Cu1024   2.056       .  S
C1019      C1020   1.376       .  A
C1019      H1022   1.082       .  S
C1020      C1021   1.387       .  A
C1020      C1689   1.474       .  S
C1021      H1023   1.082       .  S
Cu1024     N1027   2.051       .  S
Cu1025     N1035   2.087       .  S
Cu1026     N1028   2.073       .  S
Cu1026     N1034   2.077       .  S
N1027      N1028   1.319       .  A
N1027      C1031   1.338       .  A
N1028      C1029   1.348       .  A
C1029      C1030   1.387       .  A
C1029      H1032   1.082       .  S
C1030      C1031   1.379       .  A
C1030      C1701   1.470       .  S
C1031      H1033   1.082       .  S
N1034      N1035   1.325       .  A
N1034      C1038   1.342       .  A
N1035      C1036   1.349       .  A
C1036      C1037   1.385       .  A
C1036      H1039   1.082       .  S
C1037      C1038   1.382       .  A
C1038      H1040   1.082       .  S
N1041      N1042   1.321       .  A
N1041      C1045   1.354       .  A
N1041     Cu1049   2.109       .  S
N1042      C1043   1.341       .  A
N1042     Cu1048   2.059       .  S
C1043      C1044   1.382       .  A
C1043      H1046   1.081       .  S
C1044      C1045   1.396       .  A
C1044      C1665   1.495       .  S
C1045      H1047   1.082       .  S
Cu1048     N1051   2.060       .  S
Cu1049     N1059   2.111       .  S
Cu1050     N1052   2.092       .  S
Cu1050     N1058   2.095       .  S
N1051      N1052   1.320       .  A
N1051      C1055   1.341       .  A
N1052      C1053   1.352       .  A
C1053      C1054   1.391       .  A
C1053      H1056   1.082       .  S
C1054      C1055   1.380       .  A
C1054      C1677   1.480       .  S
C1055      H1057   1.082       .  S
N1058      N1059   1.325       .  A
N1058      C1062   1.347       .  A
N1059      C1060   1.354       .  A
C1060      C1061   1.391   1_655  A
C1060      H1063   1.082       .  S
C1061      C1062   1.386   1_455  A
C1061      C1085   1.489       .  S
C1062      H1064   1.082       .  S
N1065      N1066   1.320       .  A
N1065      C1069   1.352       .  A
N1065     Cu1073   2.090       .  S
N1066      C1067   1.339       .  A
N1066     Cu1072   2.049       .  S
C1067      C1068   1.377       .  A
C1067      H1070   1.082       .  S
C1068      C1069   1.390       .  A
C1068      C1644   1.477       .  S
C1069      H1071   1.082       .  S
Cu1072     N1075   2.056       .  S
Cu1073     N1083   2.095       .  S
Cu1074     N1076   2.105       .  S
Cu1074     N1082   2.107       .  S
N1075      N1076   1.320       .  A
N1075      C1079   1.340       .  A
N1076      C1077   1.354       .  A
C1077      C1078   1.397       .  A
C1077      H1080   1.081       .  S
C1078      C1079   1.382       .  A
C1078      C1653   1.495       .  S
C1079      H1081   1.082       .  S
N1082      N1083   1.325       .  A
N1082      C1086   1.353       .  A
N1083      C1084   1.348       .  A
C1084      C1085   1.387       .  A
C1084      H1087   1.082       .  S
C1085      C1086   1.390       .  A
C1086      H1088   1.082       .  S
C1089      C1680   1.548       .  S
C1089      C1090   1.529       .  S
C1089      C1095   1.544       .  S
C1089      C1093   1.541       .  S
C1090      H1097   1.086       .  S
C1090      C1091   1.368       .  D
C1091      C1092   1.549       .  S
C1091      C2028   1.492       .  S
C1092      C1096   1.543       .  S
C1092      C1094   1.547       .  S
C1092      H1098   1.106       .  S
C1093      H1099   1.082       .  S
C1093      C1094   1.370       .  D
C1094      C2712   1.509       .  S
C1095      H1100   1.085       .  S
C1095      C1096   1.368       .  D
C1096      C1764   1.496       .  S
C1101      C2076   1.543       .  S
C1101      C1102   1.538       .  S
C1101      C1107   1.544       .  S
C1101      C1105   1.535       .  S
C1102      H1109   1.085       .  S
C1102      C1103   1.365       .  D
C1103      C1104   1.547       .  S
C1103      C1668   1.494       .  S
C1104      C1108   1.546       .  S
C1104      C1106   1.544       .  S
C1104      H1110   1.109       .  S
C1105      H1111   1.086       .  S
C1105      C1106   1.365       .  D
C1106      C2724   1.502       .  S
C1107      H1112   1.081       .  S
C1107      C1108   1.371       .  D
C1108      C1728   1.497       .  S
C1113      C1716   1.536       .  S
C1113      C1114   1.536       .  S
C1113      C1119   1.532       .  S
C1113      C1117   1.543       .  S
C1114      H1121   1.086       .  S
C1114      C1115   1.364       .  D
C1115      C1116   1.544       .  S
C1115      C1776   1.488       .  S
C1116      C1120   1.548       .  S
C1116      C1118   1.546       .  S
C1116      H1122   1.109       .  S
C1117      H1123   1.082       .  S
C1117      C1118   1.362       .  D
C1118      C2697   1.495       .  S
C1119      H1124   1.086       .  S
C1119      C1120   1.367       .  D
C1120      C2172   1.494       .  S
N1125      N1126   1.321       .  A
N1125      C1129   1.353       .  A
N1125     Cu1133   2.103       .  S
N1126      C1127   1.342       .  A
N1126     Cu1132   2.059       .  S
C1127      C1128   1.382       .  A
C1127      H1130   1.081       .  S
C1128      C1129   1.394       .  A
C1128      C1629   1.492       .  S
C1129      H1131   1.082       .  S
Cu1132     N1135   2.055       .  S
Cu1133     N1143   2.105       .  S
Cu1134     N1136   2.082       .  S
Cu1134     N1142   2.084       .  S
N1135      N1136   1.320       .  A
N1135      C1139   1.340       .  A
N1136      C1137   1.349       .  A
C1137      C1138   1.389       .  A
C1137      H1140   1.082       .  S
C1138      C1139   1.380       .  A
C1138      C1617   1.475       .  S
C1139      H1141   1.082       .  S
N1142      N1143   1.324       .  A
N1142      C1146   1.345       .  A
N1143      C1144   1.353       .  A
C1144      C1145   1.390       .  A
C1144      H1147   1.082       .  S
C1145      C1146   1.384       .  A
C1145      C1169   1.485   1_565  S
C1146      H1148   1.082       .  S
N1149      N1150   1.318       .  A
N1149      C1153   1.352       .  A
N1149     Cu1157   2.088       .  S
N1150      C1151   1.335       .  A
N1150     Cu1156   2.046       .  S
C1151      C1152   1.385       .  A
C1151      H1154   1.078       .  S
C1152      C1153   1.399       .  A
C1152      C1593   1.499       .  S
C1153      H1155   1.081       .  S
Cu1156     N1159   2.042       .  S
Cu1157     N1167   2.093       .  S
Cu1158     N1160   2.099       .  S
Cu1158     N1166   2.104       .  S
N1159      N1160   1.319       .  A
N1159      C1163   1.340       .  A
N1160      C1161   1.352       .  A
C1161      C1162   1.396       .  A
C1161      H1164   1.081       .  S
C1162      C1163   1.379       .  A
C1162      C1605   1.490       .  S
C1163      H1165   1.082       .  S
N1166      N1167   1.325       .  A
N1166      C1170   1.352       .  A
N1167      C1168   1.346       .  A
C1168      C1169   1.385       .  A
C1168      H1171   1.082       .  S
C1169      C1170   1.389       .  A
C1170      H1172   1.082       .  S
C1173      C2508   1.539       .  S
C1173      C1174   1.536       .  S
C1173      C1179   1.546       .  S
C1173      C1177   1.535       .  S
C1174      H1181   1.086       .  S
C1174      C1175   1.365       .  D
C1175      C1176   1.543       .  S
C1175      C1752   1.494       .  S
C1176      C1180   1.544       .  S
C1176      C1178   1.548       .  S
C1176      H1182   1.108       .  S
C1177      H1183   1.085       .  S
C1177      C1178   1.364       .  D
C1178      C2868   1.503       .  S
C1179      H1184   1.082       .  S
C1179      C1180   1.369       .  D
C1180      C1632   1.489       .  S
C1185      C2412   1.547       .  S
C1185      C1186   1.532       .  S
C1185      C1191   1.545       .  S
C1185      C1189   1.546       .  S
C1186      H1193   1.086       .  S
C1186      C1187   1.369       .  D
C1187      C1188   1.549       .  S
C1187      C1920   1.493       .  S
C1188      C1192   1.543       .  S
C1188      C1190   1.542       .  S
C1188      H1194   1.110       .  S
C1189      H1195   1.086       .  S
C1189      C1190   1.367       .  D
C1190      C2769   1.494       .  S
C1191      H1196   1.078       .  S
C1191      C1192   1.363       .  D
C1192      C1656   1.499       .  S
C1197      C2208   1.544       .  S
C1197      C1198   1.534       .  S
C1197      C1203   1.535       .  S
C1197      C1201   1.545       .  S
C1198      H1205   1.085       .  S
C1198      C1199   1.374       .  D
C1199      C1200   1.550       .  S
C1199      C1692   1.498       .  S
C1200      C1204   1.539       .  S
C1200      C1202   1.545       .  S
C1200      H1206   1.110       .  S
C1201      H1207   1.079       .  S
C1201      C1202   1.361       .  D
C1202      C2820   1.495       .  S
C1203      H1208   1.086       .  S
C1203      C1204   1.362       .  D
C1204      C1824   1.478       .  S
C1209      C1704   1.535       .  S
C1209      C1210   1.534       .  S
C1209      C1215   1.521       .  S
C1209      C1213   1.546       .  S
C1210      H1217   1.082       .  S
C1210      C1211   1.363       .  D
C1211      C1212   1.542       .  S
C1211      C2460   1.477       .  S
C1212      C1216   1.545       .  S
C1212      C1214   1.544       .  S
C1212      H1218   1.109       .  S
C1213      H1219   1.086       .  S
C1213      C1214   1.370       .  D
C1214      C2808   1.500       .  S
C1215      H1220   1.087       .  S
C1215      C1216   1.364       .  D
C1216      C2016   1.485       .  S
C1221      C1641   1.546       .  S
C1221      C1222   1.532       .  S
C1221      C1227   1.546       .  S
C1221      C1225   1.544       .  S
C1222      H1229   1.086       .  S
C1222      C1223   1.365       .  D
C1223      C1224   1.542       .  S
C1223      C1872   1.484       .  S
C1224      C1228   1.539       .  S
C1224      C1226   1.539       .  S
C1224      H1230   1.109       .  S
C1225      H1231   1.086       .  S
C1225      C1226   1.368       .  D
C1226      C2757   1.492       .  S
C1227      H1232   1.079       .  S
C1227      C1228   1.366       .  D
C1228      C2364   1.493       .  S
C1233      C2124   1.544       .  S
C1233      C1234   1.545       .  S
C1233      C1239   1.528       .  S
C1233      C1237   1.532       .  S
C1234      H1241   1.079       .  S
C1234      C1235   1.372       .  D
C1235      C1236   1.546       .  S
C1235      C1968   1.504       .  S
C1236      C1240   1.549       .  S
C1236      C1238   1.555       .  S
C1236      H1242   1.100       .  S
C1237      H1243   1.082       .  S
C1237      C1238   1.367       .  D
C1238      C2853   1.516       .  S
C1239      H1244   1.086       .  S
C1239      C1240   1.365       .  D
C1240      C1740   1.494       .  S
C1245      C1620   1.543       .  S
C1245      C1246   1.532       .  S
C1245      C1251   1.543       .  S
C1245      C1249   1.549       .  S
C1246      H1253   1.086       .  S
C1246      C1247   1.369       .  D
C1247      C1248   1.545       .  S
C1247      C1956   1.494       .  S
C1248      C1252   1.542       .  S
C1248      C1250   1.535       .  S
C1248      H1254   1.109       .  S
C1249      H1255   1.083       .  S
C1249      C1250   1.362       .  D
C1250      C2841   1.491       .  S
C1251      H1256   1.086       .  S
C1251      C1252   1.369       .  D
C1252      C2100   1.487       .  S
C1257      C1860   1.536       .  S
C1257      C1258   1.525       .  S
C1257      C1263   1.533       .  S
C1257      C1261   1.548       .  S
C1258      H1265   1.086       .  S
C1258      C1259   1.365       .  D
C1259      C1260   1.546       .  S
C1259      C1908   1.487       .  S
C1260      C1264   1.545       .  S
C1260      C1262   1.542       .  S
C1260      H1266   1.110       .  S
C1261      H1267   1.085       .  S
C1261      C1262   1.368       .  D
C1262      C2748   1.497       .  S
C1263      H1268   1.085       .  S
C1263      C1264   1.364       .  D
C1264      C2196   1.481       .  S
C1269      C2052   1.547       .  S
C1269      C1270   1.545       .  S
C1269      C1275   1.529       .  S
C1269      C1273   1.535       .  S
C1270      H1277   1.082       .  S
C1270      C1271   1.361       .  D
C1271      C1272   1.538       .  S
C1271      C1812   1.484       .  S
C1272      C1276   1.554       .  S
C1272      C1274   1.558       .  S
C1272      H1278   1.108       .  S
C1273      H1279   1.082       .  S
C1273      C1274   1.372       .  D
C1274      C2793   1.523       .  S
C1275      H1280   1.085       .  S
C1275      C1276   1.368       .  D
C1276      C2004   1.495       .  S
C1281      C2472   1.545       .  S
C1281      C1282   1.533       .  S
C1281      C1287   1.543       .  S
C1281      C1285   1.539       .  S
C1282      H1289   1.086       .  S
C1282      C1283   1.373       .  D
C1283      C1284   1.553       .  S
C1283      C2220   1.507       .  S
C1284      C1288   1.540       .  S
C1284      C1286   1.547       .  S
C1284      H1290   1.106       .  S
C1285      H1291   1.086       .  S
C1285      C1286   1.363       .  D
C1286      C2832   1.488       .  S
C1287      H1292   1.081       .  S
C1287      C1288   1.364       .  D
C1288      C2064   1.492       .  S
C1293      C2112   1.543       .  S
C1293      C1294   1.542       .  S
C1293      C1299   1.550       .  S
C1293      C1297   1.535       .  S
C1294      H1301   1.086       .  S
C1294      C1295   1.369       .  D
C1295      C1296   1.543       .  S
C1295      C2136   1.492       .  S
C1296      C1300   1.538       .  S
C1296      C1298   1.547       .  S
C1296      H1302   1.111       .  S
C1297      H1303   1.087       .  S
C1297      C1298   1.359       .  D
C1298      C2880   1.490       .  S
C1299      H1304   1.079       .  S
C1299      C1300   1.366       .  D
C1300      C2520   1.494       .  S
C1305      C1896   1.541       .  S
C1305      C1306   1.537       .  S
C1305      C1311   1.534       .  S
C1305      C1309   1.534       .  S
C1306      H1313   1.082       .  S
C1306      C1307   1.368       .  D
C1307      C1308   1.545       .  S
C1307      C2556   1.484       .  S
C1308      C1312   1.544       .  S
C1308      C1310   1.555       .  S
C1308      H1314   1.107       .  S
C1309      H1315   1.080       .  S
C1309      C1310   1.372       .  D
C1310      C2928   1.521       .  S
C1311      H1316   1.086       .  S
C1311      C1312   1.362       .  D
C1312      C1797   1.492       .  S
C1317      C2604   1.544       .  S
C1317      C1318   1.533       .  S
C1317      C1323   1.549       .  S
C1317      C1321   1.535       .  S
C1318      H1325   1.086       .  S
C1318      C1319   1.363       .  D
C1319      C1320   1.546       .  S
C1319      C1848   1.483       .  S
C1320      C1324   1.540       .  S
C1320      C1322   1.549       .  S
C1320      H1326   1.107       .  S
C1321      H1327   1.082       .  S
C1321      C1322   1.370       .  D
C1322      C2973   1.514       .  S
C1323      H1328   1.080       .  S
C1323      C1324   1.366       .  D
C1324      C1941   1.491       .  S
C1329      C2385   1.539       .  S
C1329      C1330   1.527       .  S
C1329      C1335   1.526       .  S
C1329      C1333   1.543       .  S
C1330      H1337   1.085       .  S
C1330      C1331   1.367       .  D
C1331      C1332   1.555       .  S
C1331      C2328   1.498       .  S
C1332      C1336   1.544       .  S
C1332      C1334   1.556       .  S
C1332      H1338   1.105       .  S
C1333      H1339   1.080       .  S
C1333      C1334   1.372       .  D
C1334      C2904   1.517       .  S
C1335      H1340   1.087       .  S
C1335      C1336   1.364       .  D
C1336      C1788   1.488       .  S
C1341      C2481   1.541       .  S
C1341      C1342   1.530       .  S
C1341      C1347   1.533       .  S
C1341      C1345   1.542       .  S
C1342      H1349   1.086       .  S
C1342      C1343   1.374       .  D
C1343      C1344   1.559       .  S
C1343      C1884   1.510       .  S
C1344      C1348   1.552       .  S
C1344      C1346   1.549       .  S
C1344      H1350   1.107       .  S
C1345      H1351   1.082       .  S
C1345      C1346   1.361       .  D
C1346      C2892   1.501       .  S
C1347      H1352   1.086       .  S
C1347      C1348   1.361       .  D
C1348      C2340   1.482       .  S
C1353      C1992   1.545       .  S
C1353      C1354   1.526       .  S
C1353      C1359   1.543       .  S
C1353      C1357   1.544       .  S
C1354      H1361   1.086       .  S
C1354      C1355   1.366       .  D
C1355      C1356   1.551       .  S
C1355      C2652   1.487       .  S
C1356      C1360   1.543       .  S
C1356      C1358   1.553       .  S
C1356      H1362   1.108       .  S
C1357      H1363   1.077       .  S
C1357      C1358   1.370       .  D
C1358      C3012   1.519       .  S
C1359      H1364   1.084       .  S
C1359      C1360   1.366       .  D
C1360      C1608   1.498       .  S
N1365      N1366   1.321       .  A
N1365      C1369   1.350       .  A
N1365     Cu1373   2.081       .  S
N1366      C1367   1.339       .  A
N1366     Cu1372   2.054       .  S
C1367      C1368   1.377       .  A
C1367      H1370   1.082       .  S
C1368      C1369   1.387       .  A
C1368      C1572   1.473       .  S
C1369      H1371   1.082       .  S
Cu1372     N1375   2.056       .  S
Cu1373     N1383   2.083       .  S
Cu1374     N1376   2.103       .  S
Cu1374     N1382   2.105       .  S
N1375      N1376   1.321       .  A
N1375      C1379   1.342       .  A
N1376      C1377   1.353       .  A
C1377      C1378   1.393       .  A
C1377      H1380   1.082       .  S
C1378      C1379   1.380       .  A
C1378      C1584   1.489       .  S
C1379      H1381   1.082       .  S
N1382      N1383   1.324       .  A
N1382      C1386   1.352       .  A
N1383      C1384   1.346       .  A
C1384      C1385   1.384       .  A
C1384      H1387   1.082       .  S
C1385      C1386   1.390       .  A
C1385      C1409   1.484   1_655  S
C1386      H1388   1.082       .  S
N1389      N1390   1.319       .  A
N1389      C1393   1.349       .  A
N1389     Cu1397   2.092       .  S
N1390      C1391   1.340       .  A
N1390     Cu1396   2.057       .  S
C1391      C1392   1.388       .  A
C1391      H1394   1.080       .  S
C1392      C1393   1.396       .  A
C1392      C1545   1.501       .  S
C1393      H1395   1.080       .  S
Cu1396     N1399   2.064       .  S
Cu1397     N1407   2.093       .  S
Cu1398     N1400   2.091       .  S
Cu1398     N1406   2.093       .  S
N1399      N1400   1.322       .  A
N1399      C1403   1.343       .  A
N1400      C1401   1.350       .  A
C1401      C1402   1.389       .  A
C1401      H1404   1.082       .  S
C1402      C1403   1.383       .  A
C1402      C1557   1.487       .  S
C1403      H1405   1.082       .  S
N1406      N1407   1.323       .  A
N1406      C1410   1.347       .  A
N1407      C1408   1.351       .  A
C1408      C1409   1.388       .  A
C1408      H1411   1.082       .  S
C1409      C1410   1.387       .  A
C1410      H1412   1.082       .  S
C1413      C2232   1.543       .  S
C1413      C1414   1.544       .  S
C1413      C1419   1.531       .  S
C1413      C1417   1.537       .  S
C1414      H1421   1.080       .  S
C1414      C1415   1.378       .  D
C1415      C1416   1.557       .  S
C1415      C1581   1.510       .  S
C1416      C1420   1.548       .  S
C1416      C1418   1.540       .  S
C1416      H1422   1.108       .  S
C1417      H1423   1.087       .  S
C1417      C1418   1.362       .  D
C1418      C2997   1.493       .  S
C1419      H1424   1.086       .  S
C1419      C1420   1.363       .  D
C1420      C1596   1.488       .  S
C1425      C1569   1.541       .  S
C1425      C1426   1.532       .  S
C1425      C1431   1.545       .  S
C1425      C1429   1.541       .  S
C1426      H1433   1.086       .  S
C1426      C1427   1.366       .  D
C1427      C1428   1.543       .  S
C1427      C2148   1.487       .  S
C1428      C1432   1.543       .  S
C1428      C1430   1.548       .  S
C1428      H1434   1.110       .  S
C1429      H1435   1.086       .  S
C1429      C1430   1.366       .  D
C1430      C2988   1.497       .  S
C1431      H1436   1.082       .  S
C1431      C1432   1.365       .  D
C1432      C1980   1.494       .  S
C1437      C2436   1.540       .  S
C1437      C1438   1.531       .  S
C1437      C1443   1.540       .  S
C1437      C1441   1.541       .  S
C1438      H1445   1.086       .  S
C1438      C1439   1.368       .  D
C1439      C1440   1.544       .  S
C1439      C1932   1.482       .  S
C1440      C1444   1.540       .  S
C1440      C1442   1.545       .  S
C1440      H1446   1.110       .  S
C1441      H1447   1.086       .  S
C1441      C1442   1.365       .  D
C1442      C2949   1.498       .  S
C1443      H1448   1.081       .  S
C1443      C1444   1.363       .  D
C1444      C2292   1.488       .  S
C1449      C2529   1.537       .  S
C1449      C1450   1.539       .  S
C1449      C1455   1.533       .  S
C1449      C1453   1.546       .  S
C1450      H1457   1.086       .  S
C1450      C1451   1.364       .  D
C1451      C1452   1.539       .  S
C1451      C2280   1.478       .  S
C1452      C1456   1.544       .  S
C1452      C1454   1.536       .  S
C1452      H1458   1.110       .  S
C1453      H1459   1.083       .  S
C1453      C1454   1.360       .  D
C1454      C2937   1.486       .  S
C1455      H1460   1.086       .  S
C1455      C1456   1.370       .  D
C1456      C1836   1.489       .  S
C1461      C2616   1.546       .  S
C1461      C1462   1.540       .  S
C1461      C1467   1.551       .  S
C1461      C1465   1.540       .  S
C1462      H1469   1.086       .  S
C1462      C1463   1.368       .  D
C1463      C1464   1.537       .  S
C1463      C2448   1.485       .  S
C1464      C1468   1.539       .  S
C1464      C1466   1.538       .  S
C1464      H1470   1.110       .  S
C1465      H1471   1.086       .  S
C1465      C1466   1.365       .  D
C1466      C2964   1.492       .  S
C1467      H1472   1.079       .  S
C1467      C1468   1.365       .  D
C1468      C2544   1.493       .  S
C1473      C2160   1.543       .  S
C1473      C1474   1.536       .  S
C1473      C1479   1.547       .  S
C1473      C1477   1.536       .  S
C1474      H1481   1.086       .  S
C1474      C1475   1.366       .  D
C1475      C1476   1.550       .  S
C1475      C2244   1.499       .  S
C1476      C1480   1.545       .  S
C1476      C1478   1.549       .  S
C1476      H1482   1.108       .  S
C1477      H1483   1.087       .  S
C1477      C1478   1.364       .  D
C1478      C3024   1.499       .  S
C1479      H1484   1.079       .  S
C1479      C1480   1.366       .  D
C1480      C2661   1.495       .  S
C1485      C2496   1.545       .  S
C1485      C1486   1.546       .  S
C1485      C1491   1.539       .  S
C1485      C1489   1.537       .  S
C1486      H1493   1.080       .  S
C1486      C1487   1.363       .  D
C1487      C1488   1.537       .  S
C1487      C2400   1.484       .  S
C1488      C1492   1.548       .  S
C1488      C1490   1.548       .  S
C1488      H1494   1.110       .  S
C1489      H1495   1.087       .  S
C1489      C1490   1.363       .  D
C1490      C2916   1.496       .  S
C1491      H1496   1.084       .  S
C1491      C1492   1.371       .  D
C1492      C2565   1.499       .  S
C1497      C2577   1.549       .  S
C1497      C1498   1.539       .  S
C1497      C1503   1.553       .  S
C1497      C1501   1.541       .  S
C1498      H1505   1.086       .  S
C1498      C1499   1.363       .  D
C1499      C1500   1.537       .  S
C1499      C2256   1.486       .  S
C1500      C1504   1.543       .  S
C1500      C1502   1.542       .  S
C1500      H1506   1.102       .  S
C1501      H1507   1.086       .  S
C1501      C1502   1.364       .  D
C1502      C3057   1.493       .  S
C1503      H1508   1.078       .  S
C1503      C1504   1.375       .  D
C1504      C1548   1.512       .  S
C1509      C2676   1.543       .  S
C1509      C1510   1.541       .  S
C1509      C1515   1.530       .  S
C1509      C1513   1.547       .  S
C1510      H1517   1.085       .  S
C1510      C1511   1.366       .  D
C1511      C1512   1.543       .  S
C1511      C2304   1.485       .  S
C1512      C1516   1.547       .  S
C1512      C1514   1.539       .  S
C1512      H1518   1.110       .  S
C1513      H1519   1.085       .  S
C1513      C1514   1.365       .  D
C1514      C3048   1.493       .  S
C1515      H1520   1.086       .  S
C1515      C1516   1.369       .  D
C1516      C2268   1.493       .  S
C1521      C2316   1.546       .  S
C1521      C1522   1.540       .  S
C1521      C1527   1.536       .  S
C1521      C1525   1.537       .  S
C1522      H1529   1.081       .  S
C1522      C1523   1.369       .  D
C1523      C1524   1.550       .  S
C1523      C2628   1.494       .  S
C1524      C1528   1.539       .  S
C1524      C1526   1.550       .  S
C1524      H1530   1.103       .  S
C1525      H1531   1.085       .  S
C1525      C1526   1.374       .  D
C1526      C3036   1.518       .  S
C1527      H1532   1.086       .  S
C1527      C1528   1.362       .  D
C1528      C1560   1.485       .  S
C1533      C2688   1.543       .  S
C1533      C1534   1.547       .  S
C1533      C1539   1.540       .  S
C1533      C1537   1.530       .  S
C1534      H1541   1.082       .  S
C1534      C1535   1.367       .  D
C1535      C1536   1.543       .  S
C1535      C2592   1.495       .  S
C1536      C1540   1.547       .  S
C1536      C1538   1.546       .  S
C1536      H1542   1.102       .  S
C1537      H1543   1.087       .  S
C1537      C1538   1.359       .  D
C1538      C3072   1.490       .  S
C1539      H1544   1.085       .  S
C1539      C1540   1.374       .  D
C1540      C2640   1.508       .  S
C1545      C1546   1.406       .  A
C1545      C1550   1.413       .  A
C1546      C1547   1.399       .  A
C1546      H1551   1.081       .  S
C1547      C1548   1.419       .  A
C1547      C1554   1.440       .  S
C1548      C1549   1.414       .  A
C1549      C1550   1.406       .  A
C1549      H1552   1.083       .  S
C1550      C1553   1.443       .  S
C1553      N1555   1.157       .  T
C1554      N1556   1.157       .  T
C1557      C1558   1.404       .  A
C1557      C1562   1.417       .  A
C1558      C1559   1.404       .  A
C1558      H1563   1.084       .  S
C1559      C1560   1.412       .  A
C1559      C1566   1.443       .  S
C1560      C1561   1.401       .  A
C1561      C1562   1.401       .  A
C1561      H1564   1.085       .  S
C1562      C1565   1.444       .  S
C1565      N1567   1.158       .  T
C1566      N1568   1.157       .  T
C1569      C1570   1.414       .  A
C1569      C1574   1.423       .  A
C1570      C1571   1.399       .  A
C1570      H1575   1.078       .  S
C1571      C1572   1.403       .  A
C1571      C1578   1.444       .  S
C1572      C1573   1.400       .  A
C1573      C1574   1.404       .  A
C1573      H1576   1.085       .  S
C1574      C1577   1.444       .  S
C1577      N1579   1.157       .  T
C1578      N1580   1.157       .  T
C1581      C1582   1.406       .  A
C1581      C1586   1.424       .  A
C1582      C1583   1.400       .  A
C1582      H1587   1.078       .  S
C1583      C1584   1.411       .  A
C1583      C1590   1.444       .  S
C1584      C1585   1.403       .  A
C1585      C1586   1.408       .  A
C1585      H1588   1.085       .  S
C1586      C1589   1.444       .  S
C1589      N1591   1.158       .  T
C1590      N1592   1.157       .  T
C1593      C1594   1.411       .  A
C1593      C1598   1.420       .  A
C1594      C1595   1.409       .  A
C1594      H1599   1.083       .  S
C1595      C1596   1.410       .  A
C1595      C1602   1.441       .  S
C1596      C1597   1.398       .  A
C1597      C1598   1.394       .  A
C1597      H1600   1.083       .  S
C1598      C1601   1.444       .  S
C1601      N1603   1.158       .  T
C1602      N1604   1.157       .  T
C1605      C1606   1.404       .  A
C1605      C1610   1.412       .  A
C1606      C1607   1.402       .  A
C1606      H1611   1.085       .  S
C1607      C1608   1.415       .  A
C1607      C1614   1.442       .  S
C1608      C1609   1.409       .  A
C1609      C1610   1.405       .  A
C1609      H1612   1.084       .  S
C1610      C1613   1.443       .  S
C1613      N1615   1.157       .  T
C1614      N1616   1.157       .  T
C1617      C1618   1.398       .  A
C1617      C1622   1.406       .  A
C1618      C1619   1.406       .  A
C1618      H1623   1.085       .  S
C1619      C1620   1.423       .  A
C1619      C1626   1.441       .  S
C1620      C1621   1.413       .  A
C1621      C1622   1.398       .  A
C1621      H1624   1.080       .  S
C1622      C1625   1.445       .  S
C1625      N1627   1.157       .  T
C1626      N1628   1.156       .  T
C1629      C1630   1.405       .  A
C1629      C1634   1.419       .  A
C1630      C1631   1.405       .  A
C1630      H1635   1.084       .  S
C1631      C1632   1.414       .  A
C1631      C1638   1.444       .  S
C1632      C1633   1.399       .  A
C1633      C1634   1.402       .  A
C1633      H1636   1.081       .  S
C1634      C1637   1.444       .  S
C1637      N1639   1.157       .  T
C1638      N1640   1.157       .  T
C1641      C1642   1.415       .  A
C1641      C1646   1.423       .  A
C1642      C1643   1.399       .  A
C1642      H1647   1.076       .  S
C1643      C1644   1.404       .  A
C1643      C1650   1.445       .  S
C1644      C1645   1.401       .  A
C1645      C1646   1.406       .  A
C1645      H1648   1.085       .  S
C1646      C1649   1.445       .  S
C1649      N1651   1.157       .  T
C1650      N1652   1.157       .  T
C1653      C1654   1.405       .  A
C1653      C1658   1.416       .  A
C1654      C1655   1.398       .  A
C1654      H1659   1.084       .  S
C1655      C1656   1.417       .  A
C1655      C1662   1.446       .  S
C1656      C1657   1.406       .  A
C1657      C1658   1.410       .  A
C1657      H1660   1.084       .  S
C1658      C1661   1.442       .  S
C1661      N1663   1.157       .  T
C1662      N1664   1.157       .  T
C1665      C1666   1.405       .  A
C1665      C1670   1.420       .  A
C1666      C1667   1.407       .  A
C1666      H1671   1.085       .  S
C1667      C1668   1.417       .  A
C1667      C1674   1.444       .  S
C1668      C1669   1.400       .  A
C1669      C1670   1.402       .  A
C1669      H1672   1.085       .  S
C1670      C1673   1.444       .  S
C1673      N1675   1.157       .  T
C1674      N1676   1.157       .  T
C1677      C1678   1.401       .  A
C1677      C1682   1.406       .  A
C1678      C1679   1.408       .  A
C1678      H1683   1.085       .  S
C1679      C1680   1.423       .  A
C1679      C1686   1.444       .  S
C1680      C1681   1.414       .  A
C1681      C1682   1.399       .  A
C1681      H1684   1.081       .  S
C1682      C1685   1.445       .  S
C1685      N1687   1.157       .  T
C1686      N1688   1.157       .  T
C1689      C1690   1.398       .  A
C1689      C1694   1.409       .  A
C1690      C1691   1.403       .  A
C1690      H1695   1.085       .  S
C1691      C1692   1.419       .  A
C1691      C1698   1.442       .  S
C1692      C1693   1.404       .  A
C1693      C1694   1.400       .  A
C1693      H1696   1.081       .  S
C1694      C1697   1.445       .  S
C1697      N1699   1.157       .  T
C1698      N1700   1.157       .  T
C1701      C1702   1.397       .  A
C1701      C1706   1.406       .  A
C1702      C1703   1.403       .  A
C1702      H1707   1.085       .  S
C1703      C1704   1.424       .  A
C1703      C1710   1.442       .  S
C1704      C1705   1.410       .  A
C1705      C1706   1.395       .  A
C1705      H1708   1.084       .  S
C1706      C1709   1.445       .  S
C1709      N1711   1.157       .  T
C1710      N1712   1.158       .  T
C1713      C1714   1.398       .  A
C1713      C1718   1.408       .  A
C1714      C1715   1.404       .  A
C1714      H1719   1.085       .  S
C1715      C1716   1.423       .  A
C1715      C1722   1.444       .  S
C1716      C1717   1.410       .  A
C1717      C1718   1.393       .  A
C1717      H1720   1.078       .  S
C1718      C1721   1.447       .  S
C1721      N1723   1.157       .  T
C1722      N1724   1.157       .  T
C1725      C1726   1.404       .  A
C1725      C1730   1.411       .  A
C1726      C1727   1.404       .  A
C1726      H1731   1.085       .  S
C1727      C1728   1.415       .  A
C1727      C1734   1.443       .  S
C1728      C1729   1.408       .  A
C1729      C1730   1.401       .  A
C1729      H1732   1.085       .  S
C1730      C1733   1.444       .  S
C1733      N1735   1.157       .  T
C1734      N1736   1.157       .  T
C1737      C1738   1.404       .  A
C1737      C1742   1.411       .  A
C1738      C1739   1.405       .  A
C1738      H1743   1.085       .  S
C1739      C1740   1.414       .  A
C1739      C1746   1.442       .  S
C1740      C1741   1.407       .  A
C1741      C1742   1.399       .  A
C1741      H1744   1.084       .  S
C1742      C1745   1.444       .  S
C1745      N1747   1.157       .  T
C1746      N1748   1.157       .  T
C1749      C1750   1.403       .  A
C1749      C1754   1.411       .  A
C1750      C1751   1.402       .  A
C1750      H1755   1.085       .  S
C1751      C1752   1.415       .  A
C1751      C1758   1.442       .  S
C1752      C1753   1.408       .  A
C1753      C1754   1.399       .  A
C1753      H1756   1.084       .  S
C1754      C1757   1.444       .  S
C1757      N1759   1.157       .  T
C1758      N1760   1.157       .  T
C1761      C1762   1.406       .  A
C1761      C1766   1.412       .  A
C1762      C1763   1.400       .  A
C1762      H1767   1.084       .  S
C1763      C1764   1.413       .  A
C1763      C1770   1.442       .  S
C1764      C1765   1.409       .  A
C1765      C1766   1.404       .  A
C1765      H1768   1.084       .  S
C1766      C1769   1.443       .  S
C1769      N1771   1.157       .  T
C1770      N1772   1.157       .  T
C1773      C1774   1.403       .  A
C1773      C1778   1.411       .  A
C1774      C1775   1.402       .  A
C1774      H1779   1.085       .  S
C1775      C1776   1.414       .  A
C1775      C1782   1.444       .  S
C1776      C1777   1.403       .  A
C1777      C1778   1.403       .  A
C1777      H1780   1.085       .  S
C1778      C1781   1.443       .  S
C1781      N1783   1.157       .  T
C1782      N1784   1.157       .  T
C1785      C1786   1.402       .  A
C1785      C1790   1.407       .  A
C1786      C1787   1.398       .  A
C1786      H1791   1.085       .  S
C1787      C1788   1.412       .  A
C1787      C1794   1.441       .  S
C1788      C1789   1.409       .  A
C1789      C1790   1.404       .  A
C1789      H1792   1.085       .  S
C1790      C1793   1.443       .  S
C1793      N1795   1.157       .  T
C1794      N1796   1.157       .  T
C1797      C1798   1.409       .  A
C1797      C1802   1.410       .  A
C1798      C1799   1.405       .  A
C1798      H1803   1.085       .  S
C1799      C1800   1.411       .  A
C1799      C1806   1.443       .  S
C1800      C1801   1.408       .  A
C1801      C1802   1.400       .  A
C1801      H1804   1.084       .  S
C1802      C1805   1.443       .  S
C1805      N1807   1.157       .  T
C1806      N1808   1.157       .  T
C1809      C1810   1.409       .  A
C1809      C1814   1.414       .  A
C1810      C1811   1.399       .  A
C1810      H1815   1.082       .  S
C1811      C1812   1.405       .  A
C1811      C1818   1.444       .  S
C1812      C1813   1.406       .  A
C1813      C1814   1.406       .  A
C1813      H1816   1.085       .  S
C1814      C1817   1.443       .  S
C1817      N1819   1.157       .  T
C1818      N1820   1.157       .  T
C1821      C1822   1.402       .  A
C1821      C1826   1.417       .  A
C1822      C1823   1.403       .  A
C1822      H1827   1.085       .  S
C1823      C1824   1.412       .  A
C1823      C1830   1.442       .  S
C1824      C1825   1.397       .  A
C1825      C1826   1.399       .  A
C1825      H1828   1.085       .  S
C1826      C1829   1.443       .  S
C1829      N1831   1.157       .  T
C1830      N1832   1.157       .  T
C1833      C1834   1.400       .  A
C1833      C1838   1.412       .  A
C1834      C1835   1.396       .  A
C1834      H1839   1.085       .  S
C1835      C1836   1.414       .  A
C1835      C1842   1.442       .  S
C1836      C1837   1.407       .  A
C1837      C1838   1.401       .  A
C1837      H1840   1.085       .  S
C1838      C1841   1.444       .  S
C1841      N1843   1.157       .  T
C1842      N1844   1.157       .  T
C1845      C1846   1.406       .  A
C1845      C1850   1.409       .  A
C1846      C1847   1.401       .  A
C1846      H1851   1.085       .  S
C1847      C1848   1.409       .  A
C1847      C1854   1.443       .  S
C1848      C1849   1.405       .  A
C1849      C1850   1.404       .  A
C1849      H1852   1.085       .  S
C1850      C1853   1.443       .  S
C1853      N1855   1.157       .  T
C1854      N1856   1.157       .  T
C1857      C1858   1.398       .  A
C1857      C1862   1.408       .  A
C1858      C1859   1.405       .  A
C1858      H1863   1.085       .  S
C1859      C1860   1.425       .  A
C1859      C1866   1.443       .  S
C1860      C1861   1.410       .  A
C1861      C1862   1.394       .  A
C1861      H1864   1.083       .  S
C1862      C1865   1.446       .  S
C1865      N1867   1.157       .  T
C1866      N1868   1.157       .  T
C1869      C1870   1.402       .  A
C1869      C1874   1.416       .  A
C1870      C1871   1.400       .  A
C1870      H1875   1.085       .  S
C1871      C1872   1.414       .  A
C1871      C1878   1.444       .  S
C1872      C1873   1.401       .  A
C1873      C1874   1.401       .  A
C1873      H1876   1.085       .  S
C1874      C1877   1.444       .  S
C1877      N1879   1.157       .  T
C1878      N1880   1.157       .  T
C1881      C1882   1.406       .  A
C1881      C1886   1.410       .  A
C1882      C1883   1.408       .  A
C1882      H1887   1.085       .  S
C1883      C1884   1.418       .  A
C1883      C1890   1.442       .  S
C1884      C1885   1.412       .  A
C1885      C1886   1.403       .  A
C1885      H1888   1.084       .  S
C1886      C1889   1.444       .  S
C1889      N1891   1.157       .  T
C1890      N1892   1.157       .  T
C1893      C1894   1.404       .  A
C1893      C1898   1.416       .  A
C1894      C1895   1.395       .  A
C1894      H1899   1.084       .  S
C1895      C1896   1.420       .  A
C1895      C1902   1.446       .  S
C1896      C1897   1.413       .  A
C1897      C1898   1.408       .  A
C1897      H1900   1.078       .  S
C1898      C1901   1.443       .  S
C1901      N1903   1.158       .  T
C1902      N1904   1.157       .  T
C1905      C1906   1.403       .  A
C1905      C1910   1.416       .  A
C1906      C1907   1.396       .  A
C1906      H1911   1.085       .  S
C1907      C1908   1.415       .  A
C1907      C1914   1.446       .  S
C1908      C1909   1.403       .  A
C1909      C1910   1.406       .  A
C1909      H1912   1.085       .  S
C1910      C1913   1.442       .  S
C1913      N1915   1.157       .  T
C1914      N1916   1.157       .  T
C1917      C1918   1.403       .  A
C1917      C1922   1.419       .  A
C1918      C1919   1.406       .  A
C1918      H1923   1.085       .  S
C1919      C1920   1.416       .  A
C1919      C1926   1.444       .  S
C1920      C1921   1.401       .  A
C1921      C1922   1.402       .  A
C1921      H1924   1.085       .  S
C1922      C1925   1.444       .  S
C1925      N1927   1.158       .  T
C1926      N1928   1.157       .  T
C1929      C1930   1.404       .  A
C1929      C1934   1.419       .  A
C1930      C1931   1.402       .  A
C1930      H1935   1.085       .  S
C1931      C1932   1.412       .  A
C1931      C1938   1.444       .  S
C1932      C1933   1.398       .  A
C1933      C1934   1.399       .  A
C1933      H1936   1.085       .  S
C1934      C1937   1.443       .  S
C1937      N1939   1.157       .  T
C1938      N1940   1.157       .  T
C1941      C1942   1.410       .  A
C1941      C1946   1.411       .  A
C1942      C1943   1.404       .  A
C1942      H1947   1.084       .  S
C1943      C1944   1.408       .  A
C1943      C1950   1.443       .  S
C1944      C1945   1.403       .  A
C1945      C1946   1.397       .  A
C1945      H1948   1.083       .  S
C1946      C1949   1.443       .  S
C1949      N1951   1.157       .  T
C1950      N1952   1.157       .  T
C1953      C1954   1.403       .  A
C1953      C1958   1.411       .  A
C1954      C1955   1.403       .  A
C1954      H1959   1.085       .  S
C1955      C1956   1.415       .  A
C1955      C1962   1.443       .  S
C1956      C1957   1.407       .  A
C1957      C1958   1.401       .  A
C1957      H1960   1.084       .  S
C1958      C1961   1.444       .  S
C1961      N1963   1.157       .  T
C1962      N1964   1.157       .  T
C1965      C1966   1.400       .  A
C1965      C1970   1.403       .  A
C1966      C1967   1.399       .  A
C1966      H1971   1.086       .  S
C1967      C1968   1.418       .  A
C1967      C1974   1.438       .  S
C1968      C1969   1.414       .  A
C1969      C1970   1.402       .  A
C1969      H1972   1.084       .  S
C1970      C1973   1.443       .  S
C1973      N1975   1.157       .  T
C1974      N1976   1.156       .  T
C1977      C1978   1.406       .  A
C1977      C1982   1.410       .  A
C1978      C1979   1.401       .  A
C1978      H1983   1.085       .  S
C1979      C1980   1.411       .  A
C1979      C1986   1.442       .  S
C1980      C1981   1.409       .  A
C1981      C1982   1.404       .  A
C1981      H1984   1.085       .  S
C1982      C1985   1.443       .  S
C1985      N1987   1.157       .  T
C1986      N1988   1.157       .  T
C1989      C1990   1.400       .  A
C1989      C1994   1.407       .  A
C1990      C1991   1.406       .  A
C1990      H1995   1.085       .  S
C1991      C1992   1.423       .  A
C1991      C1998   1.444       .  S
C1992      C1993   1.412       .  A
C1993      C1994   1.399       .  A
C1993      H1996   1.081       .  S
C1994      C1997   1.445       .  S
C1997      N1999   1.157       .  T
C1998      N2000   1.157       .  T
C2001      C2002   1.401       .  A
C2001      C2006   1.421       .  A
C2002      C2003   1.400       .  A
C2002      H2007   1.085       .  S
C2003      C2004   1.416       .  A
C2003      C2010   1.444       .  S
C2004      C2005   1.402       .  A
C2005      C2006   1.407       .  A
C2005      H2008   1.084       .  S
C2006      C2009   1.444       .  S
C2009      N2011   1.158       .  T
C2010      N2012   1.157       .  T
C2013      C2014   1.410       .  A
C2013      C2018   1.415       .  A
C2014      C2015   1.406       .  A
C2014      H2019   1.083       .  S
C2015      C2016   1.410       .  A
C2015      C2022   1.443       .  S
C2016      C2017   1.402       .  A
C2017      C2018   1.391       .  A
C2017      H2020   1.085       .  S
C2018      C2021   1.444       .  S
C2021      N2023   1.157       .  T
C2022      N2024   1.157       .  T
C2025      C2026   1.404       .  A
C2025      C2030   1.412       .  A
C2026      C2027   1.404       .  A
C2026      H2031   1.085       .  S
C2027      C2028   1.413       .  A
C2027      C2034   1.443       .  S
C2028      C2029   1.406       .  A
C2029      C2030   1.402       .  A
C2029      H2032   1.085       .  S
C2030      C2033   1.444       .  S
C2033      N2035   1.157       .  T
C2034      N2036   1.157       .  T
C2037      C2038   1.400       .  A
C2037      C2042   1.412       .  A
C2038      C2039   1.399       .  A
C2038      H2043   1.085       .  S
C2039      C2040   1.414       .  A
C2039      C2046   1.441       .  S
C2040      C2041   1.406       .  A
C2041      C2042   1.403       .  A
C2041      H2044   1.085       .  S
C2042      C2045   1.443       .  S
C2045      N2047   1.157       .  T
C2046      N2048   1.157       .  T
C2049      C2050   1.405       .  A
C2049      C2054   1.412       .  A
C2050      C2051   1.400       .  A
C2050      H2055   1.085       .  S
C2051      C2052   1.420       .  A
C2051      C2058   1.445       .  S
C2052      C2053   1.415       .  A
C2053      C2054   1.404       .  A
C2053      H2056   1.077       .  S
C2054      C2057   1.443       .  S
C2057      N2059   1.158       .  T
C2058      N2060   1.157       .  T
C2061      C2062   1.408       .  A
C2061      C2066   1.416       .  A
C2062      C2063   1.408       .  A
C2062      H2067   1.084       .  S
C2063      C2064   1.412       .  A
C2063      C2070   1.443       .  S
C2064      C2065   1.403       .  A
C2065      C2066   1.397       .  A
C2065      H2068   1.085       .  S
C2066      C2069   1.445       .  S
C2069      N2071   1.157       .  T
C2070      N2072   1.157       .  T
C2073      C2074   1.402       .  A
C2073      C2078   1.413       .  A
C2074      C2075   1.397       .  A
C2074      H2079   1.085       .  S
C2075      C2076   1.422       .  A
C2075      C2082   1.445       .  S
C2076      C2077   1.414       .  A
C2077      C2078   1.406       .  A
C2077      H2080   1.078       .  S
C2078      C2081   1.443       .  S
C2081      N2083   1.157       .  T
C2082      N2084   1.157       .  T
C2085      C2086   1.414       .  A
C2085      C2090   1.425       .  A
C2086      C2087   1.401       .  A
C2086      H2091   1.077       .  S
C2087      C2088   1.407       .  A
C2087      C2094   1.446       .  S
C2088      C2089   1.399       .  A
C2089      C2090   1.404       .  A
C2089      H2092   1.085       .  S
C2090      C2093   1.444       .  S
C2093      N2095   1.157       .  T
C2094      N2096   1.157       .  T
C2097      C2098   1.402       .  A
C2097      C2102   1.416       .  A
C2098      C2099   1.404       .  A
C2098      H2103   1.085       .  S
C2099      C2100   1.414       .  A
C2099      C2106   1.441       .  S
C2100      C2101   1.400       .  A
C2101      C2102   1.400       .  A
C2101      H2104   1.085       .  S
C2102      C2105   1.444       .  S
C2105      N2107   1.157       .  T
C2106      N2108   1.157       .  T
C2109      C2110   1.399       .  A
C2109      C2114   1.403       .  A
C2110      C2111   1.402       .  A
C2110      H2115   1.085       .  S
C2111      C2112   1.424       .  A
C2111      C2118   1.445       .  S
C2112      C2113   1.415       .  A
C2113      C2114   1.400       .  A
C2113      H2116   1.075       .  S
C2114      C2117   1.445       .  S
C2117      N2119   1.157       .  T
C2118      N2120   1.157       .  T
C2121      C2122   1.402       .  A
C2121      C2126   1.412       .  A
C2122      C2123   1.398       .  A
C2122      H2127   1.085       .  S
C2123      C2124   1.422       .  A
C2123      C2130   1.445       .  S
C2124      C2125   1.414       .  A
C2125      C2126   1.404       .  A
C2125      H2128   1.076       .  S
C2126      C2129   1.444       .  S
C2129      N2131   1.158       .  T
C2130      N2132   1.157       .  T
C2133      C2134   1.405       .  A
C2133      C2138   1.411       .  A
C2134      C2135   1.407       .  A
C2134      H2139   1.084       .  S
C2135      C2136   1.414       .  A
C2135      C2142   1.442       .  S
C2136      C2137   1.404       .  A
C2137      C2138   1.400       .  A
C2137      H2140   1.084       .  S
C2138      C2141   1.444       .  S
C2141      N2143   1.157       .  T
C2142      N2144   1.157       .  T
C2145      C2146   1.402       .  A
C2145      C2150   1.411       .  A
C2146      C2147   1.400       .  A
C2146      H2151   1.085       .  S
C2147      C2148   1.413       .  A
C2147      C2154   1.443       .  S
C2148      C2149   1.404       .  A
C2149      C2150   1.404       .  A
C2149      H2152   1.085       .  S
C2150      C2153   1.444       .  S
C2153      N2155   1.157       .  T
C2154      N2156   1.157       .  T
C2157      C2158   1.399       .  A
C2157      C2162   1.404       .  A
C2158      C2159   1.403       .  A
C2158      H2163   1.085       .  S
C2159      C2160   1.425       .  A
C2159      C2166   1.445       .  S
C2160      C2161   1.414       .  A
C2161      C2162   1.399       .  A
C2161      H2164   1.075       .  S
C2162      C2165   1.445       .  S
C2165      N2167   1.157       .  T
C2166      N2168   1.157       .  T
C2169      C2170   1.408       .  A
C2169      C2174   1.412       .  A
C2170      C2171   1.400       .  A
C2170      H2175   1.084       .  S
C2171      C2172   1.411       .  A
C2171      C2178   1.444       .  S
C2172      C2173   1.409       .  A
C2173      C2174   1.405       .  A
C2173      H2176   1.085       .  S
C2174      C2177   1.443       .  S
C2177      N2179   1.157       .  T
C2178      N2180   1.157       .  T
C2181      C2182   1.405       .  A
C2181      C2186   1.411       .  A
C2182      C2183   1.399       .  A
C2182      H2187   1.083       .  S
C2183      C2184   1.421       .  A
C2183      C2190   1.442       .  S
C2184      C2185   1.415       .  A
C2185      C2186   1.406       .  A
C2185      H2188   1.083       .  S
C2186      C2189   1.443       .  S
C2189      N2191   1.157       .  T
C2190      N2192   1.158       .  T
C2193      C2194   1.405       .  A
C2193      C2198   1.419       .  A
C2194      C2195   1.405       .  A
C2194      H2199   1.084       .  S
C2195      C2196   1.411       .  A
C2195      C2202   1.443       .  S
C2196      C2197   1.398       .  A
C2197      C2198   1.401       .  A
C2197      H2200   1.085       .  S
C2198      C2201   1.444       .  S
C2201      N2203   1.157       .  T
C2202      N2204   1.157       .  T
C2205      C2206   1.397       .  A
C2205      C2210   1.407       .  A
C2206      C2207   1.404       .  A
C2206      H2211   1.085       .  S
C2207      C2208   1.424       .  A
C2207      C2214   1.442       .  S
C2208      C2209   1.413       .  A
C2209      C2210   1.398       .  A
C2209      H2212   1.078       .  S
C2210      C2213   1.446       .  S
C2213      N2215   1.157       .  T
C2214      N2216   1.156       .  T
C2217      C2218   1.409       .  A
C2217      C2222   1.412       .  A
C2218      C2219   1.404       .  A
C2218      H2223   1.082       .  S
C2219      C2220   1.416       .  A
C2219      C2226   1.441       .  S
C2220      C2221   1.411       .  A
C2221      C2222   1.405       .  A
C2221      H2224   1.084       .  S
C2222      C2225   1.443       .  S
C2225      N2227   1.157       .  T
C2226      N2228   1.157       .  T
C2229      C2230   1.400       .  A
C2229      C2234   1.414       .  A
C2230      C2231   1.396       .  A
C2230      H2235   1.085       .  S
C2231      C2232   1.424       .  A
C2231      C2238   1.445       .  S
C2232      C2233   1.414       .  A
C2233      C2234   1.409       .  A
C2233      H2236   1.080       .  S
C2234      C2237   1.443       .  S
C2237      N2239   1.157       .  T
C2238      N2240   1.157       .  T
C2241      C2242   1.404       .  A
C2241      C2246   1.412       .  A
C2242      C2243   1.402       .  A
C2242      H2247   1.085       .  S
C2243      C2244   1.414       .  A
C2243      C2250   1.442       .  S
C2244      C2245   1.410       .  A
C2245      C2246   1.407       .  A
C2245      H2248   1.085       .  S
C2246      C2249   1.443       .  S
C2249      N2251   1.157       .  T
C2250      N2252   1.157       .  T
C2253      C2254   1.403       .  A
C2253      C2258   1.415       .  A
C2254      C2255   1.405       .  A
C2254      H2259   1.085       .  S
C2255      C2256   1.415       .  A
C2255      C2262   1.443       .  S
C2256      C2257   1.400       .  A
C2257      C2258   1.397       .  A
C2257      H2260   1.085       .  S
C2258      C2261   1.445       .  S
C2261      N2263   1.157       .  T
C2262      N2264   1.157       .  T
C2265      C2266   1.404       .  A
C2265      C2270   1.411       .  A
C2266      C2267   1.404       .  A
C2266      H2271   1.085       .  S
C2267      C2268   1.413       .  A
C2267      C2274   1.443       .  S
C2268      C2269   1.407       .  A
C2269      C2270   1.400       .  A
C2269      H2272   1.084       .  S
C2270      C2273   1.444       .  S
C2273      N2275   1.157       .  T
C2274      N2276   1.157       .  T
C2277      C2278   1.401       .  A
C2277      C2282   1.418       .  A
C2278      C2279   1.400       .  A
C2278      H2283   1.085       .  S
C2279      C2280   1.412       .  A
C2279      C2286   1.443       .  S
C2280      C2281   1.398       .  A
C2281      C2282   1.400       .  A
C2281      H2284   1.085       .  S
C2282      C2285   1.445       .  S
C2285      N2287   1.158       .  T
C2286      N2288   1.157       .  T
C2289      C2290   1.408       .  A
C2289      C2294   1.420       .  A
C2290      C2291   1.392       .  A
C2290      H2295   1.083       .  S
C2291      C2292   1.409       .  A
C2291      C2298   1.446       .  S
C2292      C2293   1.404       .  A
C2293      C2294   1.412       .  A
C2293      H2296   1.085       .  S
C2294      C2297   1.442       .  S
C2297      N2299   1.158       .  T
C2298      N2300   1.157       .  T
C2301      C2302   1.404       .  A
C2301      C2306   1.419       .  A
C2302      C2303   1.403       .  A
C2302      H2307   1.084       .  S
C2303      C2304   1.411       .  A
C2303      C2310   1.443       .  S
C2304      C2305   1.400       .  A
C2305      C2306   1.403       .  A
C2305      H2308   1.085       .  S
C2306      C2309   1.444       .  S
C2309      N2311   1.158       .  T
C2310      N2312   1.157       .  T
C2313      C2314   1.399       .  A
C2313      C2318   1.407       .  A
C2314      C2315   1.402       .  A
C2314      H2319   1.085       .  S
C2315      C2316   1.425       .  A
C2315      C2322   1.445       .  S
C2316      C2317   1.414       .  A
C2317      C2318   1.405       .  A
C2317      H2320   1.077       .  S
C2318      C2321   1.444       .  S
C2321      N2323   1.157       .  T
C2322      N2324   1.157       .  T
C2325      C2326   1.410       .  A
C2325      C2330   1.414       .  A
C2326      C2327   1.411       .  A
C2326      H2331   1.084       .  S
C2327      C2328   1.413       .  A
C2327      C2334   1.442       .  S
C2328      C2329   1.406       .  A
C2329      C2330   1.395       .  A
C2329      H2332   1.085       .  S
C2330      C2333   1.445       .  S
C2333      N2335   1.157       .  T
C2334      N2336   1.157       .  T
C2337      C2338   1.409       .  A
C2337      C2342   1.421       .  A
C2338      C2339   1.409       .  A
C2338      H2343   1.084       .  S
C2339      C2340   1.410       .  A
C2339      C2346   1.443       .  S
C2340      C2341   1.392       .  A
C2341      C2342   1.396       .  A
C2341      H2344   1.084       .  S
C2342      C2345   1.444       .  S
C2345      N2347   1.158       .  T
C2346      N2348   1.157       .  T
C2349      C2350   1.402       .  A
C2349      C2354   1.411       .  A
C2350      C2351   1.401       .  A
C2350      H2355   1.085       .  S
C2351      C2352   1.415       .  A
C2351      C2358   1.442       .  S
C2352      C2353   1.408       .  A
C2353      C2354   1.403       .  A
C2353      H2356   1.084       .  S
C2354      C2357   1.444       .  S
C2357      N2359   1.157       .  T
C2358      N2360   1.157       .  T
C2361      C2362   1.404       .  A
C2361      C2366   1.411       .  A
C2362      C2363   1.404       .  A
C2362      H2367   1.085       .  S
C2363      C2364   1.414       .  A
C2363      C2370   1.443       .  S
C2364      C2365   1.407       .  A
C2365      C2366   1.397       .  A
C2365      H2368   1.085       .  S
C2366      C2369   1.444       .  S
C2369      N2371   1.157       .  T
C2370      N2372   1.157       .  T
C2373      C2374   1.408       .  A
C2373      C2378   1.410       .  A
C2374      C2375   1.400       .  A
C2374      H2379   1.084       .  S
C2375      C2376   1.412       .  A
C2375      C2382   1.443       .  S
C2376      C2377   1.410       .  A
C2377      C2378   1.403       .  A
C2377      H2380   1.084       .  S
C2378      C2381   1.443       .  S
C2381      N2383   1.157       .  T
C2382      N2384   1.157       .  T
C2385      C2386   1.411       .  A
C2385      C2390   1.423       .  A
C2386      C2387   1.397       .  A
C2386      H2391   1.081       .  S
C2387      C2388   1.408       .  A
C2387      C2394   1.445       .  S
C2388      C2389   1.398       .  A
C2389      C2390   1.405       .  A
C2389      H2392   1.085       .  S
C2390      C2393   1.444       .  S
C2393      N2395   1.157       .  T
C2394      N2396   1.157       .  T
C2397      C2398   1.403       .  A
C2397      C2402   1.417       .  A
C2398      C2399   1.403       .  A
C2398      H2403   1.085       .  S
C2399      C2400   1.414       .  A
C2399      C2406   1.444       .  S
C2400      C2401   1.398       .  A
C2401      C2402   1.401       .  A
C2401      H2404   1.085       .  S
C2402      C2405   1.443       .  S
C2405      N2407   1.157       .  T
C2406      N2408   1.157       .  T
C2409      C2410   1.401       .  A
C2409      C2414   1.403       .  A
C2410      C2411   1.407       .  A
C2410      H2415   1.085       .  S
C2411      C2412   1.423       .  A
C2411      C2418   1.444       .  S
C2412      C2413   1.415       .  A
C2413      C2414   1.398       .  A
C2413      H2416   1.077       .  S
C2414      C2417   1.445       .  S
C2417      N2419   1.157       .  T
C2418      N2420   1.157       .  T
C2421      C2422   1.398       .  A
C2421      C2426   1.409       .  A
C2422      C2423   1.403       .  A
C2422      H2427   1.085       .  S
C2423      C2424   1.423       .  A
C2423      C2430   1.444       .  S
C2424      C2425   1.411       .  A
C2425      C2426   1.395       .  A
C2425      H2428   1.077       .  S
C2426      C2429   1.447       .  S
C2429      N2431   1.158       .  T
C2430      N2432   1.157       .  T
C2433      C2434   1.400       .  A
C2433      C2438   1.403       .  A
C2434      C2435   1.403       .  A
C2434      H2439   1.085       .  S
C2435      C2436   1.421       .  A
C2435      C2442   1.445       .  S
C2436      C2437   1.413       .  A
C2437      C2438   1.397       .  A
C2437      H2440   1.078       .  S
C2438      C2441   1.444       .  S
C2441      N2443   1.157       .  T
C2442      N2444   1.157       .  T
C2445      C2446   1.403       .  A
C2445      C2450   1.406       .  A
C2446      C2447   1.401       .  A
C2446      H2451   1.085       .  S
C2447      C2448   1.413       .  A
C2447      C2454   1.443       .  S
C2448      C2449   1.406       .  A
C2449      C2450   1.398       .  A
C2449      H2452   1.085       .  S
C2450      C2453   1.444       .  S
C2453      N2455   1.157       .  T
C2454      N2456   1.157       .  T
C2457      C2458   1.403       .  A
C2457      C2462   1.419       .  A
C2458      C2459   1.400       .  A
C2458      H2463   1.085       .  S
C2459      C2460   1.410       .  A
C2459      C2466   1.444       .  S
C2460      C2461   1.399       .  A
C2461      C2462   1.402       .  A
C2461      H2464   1.085       .  S
C2462      C2465   1.444       .  S
C2465      N2467   1.158       .  T
C2466      N2468   1.157       .  T
C2469      C2470   1.402       .  A
C2469      C2474   1.405       .  A
C2470      C2471   1.407       .  A
C2470      H2475   1.085       .  S
C2471      C2472   1.422       .  A
C2471      C2478   1.444       .  S
C2472      C2473   1.413       .  A
C2473      C2474   1.398       .  A
C2473      H2476   1.078       .  S
C2474      C2477   1.445       .  S
C2477      N2479   1.157       .  T
C2478      N2480   1.157       .  T
C2481      C2482   1.411       .  A
C2481      C2486   1.422       .  A
C2482      C2483   1.395       .  A
C2482      H2487   1.079       .  S
C2483      C2484   1.408       .  A
C2483      C2490   1.446       .  S
C2484      C2485   1.401       .  A
C2485      C2486   1.407       .  A
C2485      H2488   1.084       .  S
C2486      C2489   1.444       .  S
C2489      N2491   1.157       .  T
C2490      N2492   1.157       .  T
C2493      C2494   1.399       .  A
C2493      C2498   1.405       .  A
C2494      C2495   1.402       .  A
C2494      H2499   1.085       .  S
C2495      C2496   1.423       .  A
C2495      C2502   1.445       .  S
C2496      C2497   1.416       .  A
C2497      C2498   1.401       .  A
C2497      H2500   1.075       .  S
C2498      C2501   1.445       .  S
C2501      N2503   1.157       .  T
C2502      N2504   1.157       .  T
C2505      C2506   1.400       .  A
C2505      C2510   1.414       .  A
C2506      C2507   1.396       .  A
C2506      H2511   1.085       .  S
C2507      C2508   1.423       .  A
C2507      C2514   1.446       .  S
C2508      C2509   1.412       .  A
C2509      C2510   1.406       .  A
C2509      H2512   1.079       .  S
C2510      C2513   1.443       .  S
C2513      N2515   1.157       .  T
C2514      N2516   1.157       .  T
C2517      C2518   1.402       .  A
C2517      C2522   1.418       .  A
C2518      C2519   1.403       .  A
C2518      H2523   1.085       .  S
C2519      C2520   1.418       .  A
C2519      C2526   1.444       .  S
C2520      C2521   1.400       .  A
C2521      C2522   1.400       .  A
C2521      H2524   1.082       .  S
C2522      C2525   1.444       .  S
C2525      N2527   1.158       .  T
C2526      N2528   1.157       .  T
C2529      C2530   1.411       .  A
C2529      C2534   1.422       .  A
C2530      C2531   1.396       .  A
C2530      H2535   1.080       .  S
C2531      C2532   1.406       .  A
C2531      C2538   1.446       .  S
C2532      C2533   1.396       .  A
C2533      C2534   1.402       .  A
C2533      H2536   1.085       .  S
C2534      C2537   1.441       .  S
C2537      N2539   1.156       .  T
C2538      N2540   1.157       .  T
C2541      C2542   1.408       .  A
C2541      C2546   1.411       .  A
C2542      C2543   1.401       .  A
C2542      H2547   1.084       .  S
C2543      C2544   1.410       .  A
C2543      C2550   1.444       .  S
C2544      C2545   1.409       .  A
C2545      C2546   1.405       .  A
C2545      H2548   1.085       .  S
C2546      C2549   1.443       .  S
C2549      N2551   1.157       .  T
C2550      N2552   1.157       .  T
C2553      C2554   1.407       .  A
C2553      C2558   1.418       .  A
C2554      C2555   1.395       .  A
C2554      H2559   1.084       .  S
C2555      C2556   1.409       .  A
C2555      C2562   1.446       .  S
C2556      C2557   1.402       .  A
C2557      C2558   1.408       .  A
C2557      H2560   1.085       .  S
C2558      C2561   1.442       .  S
C2561      N2563   1.157       .  T
C2562      N2564   1.157       .  T
C2565      C2566   1.403       .  A
C2565      C2570   1.422       .  A
C2566      C2567   1.399       .  A
C2566      H2571   1.082       .  S
C2567      C2568   1.411       .  A
C2567      C2574   1.445       .  S
C2568      C2569   1.400       .  A
C2569      C2570   1.405       .  A
C2569      H2572   1.085       .  S
C2570      C2573   1.444       .  S
C2573      N2575   1.157       .  T
C2574      N2576   1.157       .  T
C2577      C2578   1.415       .  A
C2577      C2582   1.425       .  A
C2578      C2579   1.402       .  A
C2578      H2583   1.075       .  S
C2579      C2580   1.405       .  A
C2579      C2586   1.445       .  S
C2580      C2581   1.399       .  A
C2581      C2582   1.404       .  A
C2581      H2584   1.085       .  S
C2582      C2585   1.444       .  S
C2585      N2587   1.157       .  T
C2586      N2588   1.157       .  T
C2589      C2590   1.408       .  A
C2589      C2594   1.410       .  A
C2590      C2591   1.402       .  A
C2590      H2595   1.084       .  S
C2591      C2592   1.411       .  A
C2591      C2598   1.444       .  S
C2592      C2593   1.409       .  A
C2593      C2594   1.405       .  A
C2593      H2596   1.084       .  S
C2594      C2597   1.443       .  S
C2597      N2599   1.157       .  T
C2598      N2600   1.157       .  T
C2601      C2602   1.406       .  A
C2601      C2606   1.415       .  A
C2602      C2603   1.399       .  A
C2602      H2607   1.084       .  S
C2603      C2604   1.420       .  A
C2603      C2610   1.446       .  S
C2604      C2605   1.413       .  A
C2605      C2606   1.405       .  A
C2605      H2608   1.076       .  S
C2606      C2609   1.443       .  S
C2609      N2611   1.158       .  T
C2610      N2612   1.157       .  T
C2613      C2614   1.400       .  A
C2613      C2618   1.405       .  A
C2614      C2615   1.405       .  A
C2614      H2619   1.085       .  S
C2615      C2616   1.425       .  A
C2615      C2622   1.444       .  S
C2616      C2617   1.414       .  A
C2617      C2618   1.400       .  A
C2617      H2620   1.075       .  S
C2618      C2621   1.445       .  S
C2621      N2623   1.157       .  T
C2622      N2624   1.157       .  T
C2625      C2626   1.406       .  A
C2625      C2630   1.411       .  A
C2626      C2627   1.407       .  A
C2626      H2631   1.085       .  S
C2627      C2628   1.413       .  A
C2627      C2634   1.443       .  S
C2628      C2629   1.407       .  A
C2629      C2630   1.400       .  A
C2629      H2632   1.085       .  S
C2630      C2633   1.444       .  S
C2633      N2635   1.157       .  T
C2634      N2636   1.157       .  T
C2637      C2638   1.405       .  A
C2637      C2642   1.411       .  A
C2638      C2639   1.399       .  A
C2638      H2643   1.083       .  S
C2639      C2640   1.419       .  A
C2639      C2646   1.441       .  S
C2640      C2641   1.413       .  A
C2641      C2642   1.403       .  A
C2641      H2644   1.083       .  S
C2642      C2645   1.443       .  S
C2645      N2647   1.157       .  T
C2646      N2648   1.158       .  T
C2649      C2650   1.403       .  A
C2649      C2654   1.417       .  A
C2650      C2651   1.402       .  A
C2650      H2655   1.085       .  S
C2651      C2652   1.415       .  A
C2651      C2658   1.444       .  S
C2652      C2653   1.400       .  A
C2653      C2654   1.401       .  A
C2653      H2656   1.084       .  S
C2654      C2657   1.443       .  S
C2657      N2659   1.157       .  T
C2658      N2660   1.157       .  T
C2661      C2662   1.410       .  A
C2661      C2666   1.411       .  A
C2662      C2663   1.404       .  A
C2662      H2667   1.084       .  S
C2663      C2664   1.410       .  A
C2663      C2670   1.443       .  S
C2664      C2665   1.407       .  A
C2665      C2666   1.400       .  A
C2665      H2668   1.082       .  S
C2666      C2669   1.443       .  S
C2669      N2671   1.157       .  T
C2670      N2672   1.157       .  T
C2673      C2674   1.400       .  A
C2673      C2678   1.407       .  A
C2674      C2675   1.407       .  A
C2674      H2679   1.085       .  S
C2675      C2676   1.423       .  A
C2675      C2682   1.443       .  S
C2676      C2677   1.412       .  A
C2677      C2678   1.399       .  A
C2677      H2680   1.082       .  S
C2678      C2681   1.444       .  S
C2681      N2683   1.157       .  T
C2682      N2684   1.157       .  T
C2685      C2686   1.404       .  A
C2685      C2690   1.413       .  A
C2686      C2687   1.399       .  A
C2686      H2691   1.085       .  S
C2687      C2688   1.421       .  A
C2687      C2694   1.446       .  S
C2688      C2689   1.413       .  A
C2689      C2690   1.405       .  A
C2689      H2692   1.077       .  S
C2690      C2693   1.443       .  S
C2693      N2695   1.157       .  T
C2694      N2696   1.157       .  T
C2697      C2698   1.401       .  A
C2697      C2702   1.405       .  A
C2698      C2699   1.401       .  A
C2698      H2703   1.085       .  S
C2699      C2700   1.438       .  A
C2699      C2706   1.449       .  S
C2700      C2701   1.425       .  A
C2701      C2702   1.407       .  A
C2701      H2704   1.078       .  S
C2702      C2705   1.444       .  S
C2705      N2707   1.157       .  T
C2706      N2708   1.157       .  T
C2709      C2710   1.428       .  A
C2709      C2714   1.435       .  A
C2710      C2711   1.413       .  A
C2710      H2715   1.083       .  S
C2711      C2712   1.409       .  A
C2711      C2718   1.442       .  S
C2712      C2713   1.399       .  A
C2713      C2714   1.397       .  A
C2713      H2716   1.085       .  S
C2714      C2717   1.440       .  S
C2717      N2719   1.158       .  T
C2718      N2720   1.157       .  T
C2721      C2722   1.417       .  A
C2721      C2726   1.448       .  A
C2722      C2723   1.400       .  A
C2722      H2727   1.062       .  S
C2723      C2724   1.407       .  A
C2723      C2730   1.445       .  S
C2724      C2725   1.398       .  A
C2725      C2726   1.410       .  A
C2725      H2728   1.085       .  S
C2726      C2729   1.448       .  S
C2729      N2731   1.158       .  T
C2730      N2732   1.157       .  T
C2733      C2734   1.425       .  A
C2733      C2738   1.447       .  A
C2734      C2735   1.399       .  A
C2734      H2739   1.070       .  S
C2735      C2736   1.397       .  A
C2735      C2742   1.445       .  S
C2736      C2737   1.397       .  A
C2737      C2738   1.412       .  A
C2737      H2740   1.085       .  S
C2738      C2741   1.448       .  S
C2741      N2743   1.158       .  T
C2742      N2744   1.157       .  T
C2745      C2746   1.417       .  A
C2745      C2750   1.432       .  A
C2746      C2747   1.407       .  A
C2746      H2751   1.079       .  S
C2747      C2748   1.410       .  A
C2747      C2754   1.443       .  S
C2748      C2749   1.400       .  A
C2749      C2750   1.401       .  A
C2749      H2752   1.085       .  S
C2750      C2753   1.445       .  S
C2753      N2755   1.158       .  T
C2754      N2756   1.157       .  T
C2757      C2758   1.398       .  A
C2757      C2762   1.407       .  A
C2758      C2759   1.404       .  A
C2758      H2763   1.085       .  S
C2759      C2760   1.433       .  A
C2759      C2766   1.445       .  S
C2760      C2761   1.419       .  A
C2761      C2762   1.404       .  A
C2761      H2764   1.079       .  S
C2762      C2765   1.443       .  S
C2765      N2767   1.157       .  T
C2766      N2768   1.157       .  T
C2769      C2770   1.400       .  A
C2769      C2774   1.402       .  A
C2770      C2771   1.410       .  A
C2770      H2775   1.085       .  S
C2771      C2772   1.433       .  A
C2771      C2778   1.442       .  S
C2772      C2773   1.424       .  A
C2773      C2774   1.401       .  A
C2773      H2776   1.079       .  S
C2774      C2777   1.443       .  S
C2777      N2779   1.156       .  T
C2778      N2780   1.157       .  T
C2781      C2782   1.418       .  A
C2781      C2786   1.442       .  A
C2782      C2783   1.398       .  A
C2782      H2787   1.084       .  S
C2783      C2784   1.406       .  A
C2783      C2790   1.445       .  S
C2784      C2785   1.393       .  A
C2785      C2786   1.407       .  A
C2785      H2788   1.086       .  S
C2786      C2789   1.443       .  S
C2789      N2791   1.158       .  T
C2790      N2792   1.157       .  T
C2793      C2794   1.409       .  A
C2793      C2798   1.422       .  A
C2794      C2795   1.413       .  A
C2794      H2799   1.081       .  S
C2795      C2796   1.429       .  A
C2795      C2802   1.445       .  S
C2796      C2797   1.416       .  A
C2797      C2798   1.402       .  A
C2797      H2800   1.080       .  S
C2798      C2801   1.445       .  S
C2801      N2803   1.158       .  T
C2802      N2804   1.157       .  T
C2805      C2806   1.423       .  A
C2805      C2810   1.434       .  A
C2806      C2807   1.408       .  A
C2806      H2811   1.079       .  S
C2807      C2808   1.408       .  A
C2807      C2814   1.443       .  S
C2808      C2809   1.399       .  A
C2809      C2810   1.403       .  A
C2809      H2812   1.085       .  S
C2810      C2813   1.443       .  S
C2813      N2815   1.157       .  T
C2814      N2816   1.157       .  T
C2817      C2818   1.419       .  A
C2817      C2822   1.435       .  A
C2818      C2819   1.405       .  A
C2818      H2823   1.077       .  S
C2819      C2820   1.407       .  A
C2819      C2826   1.441       .  S
C2820      C2821   1.400       .  A
C2821      C2822   1.408       .  A
C2821      H2824   1.086       .  S
C2822      C2825   1.443       .  S
C2825      N2827   1.158       .  T
C2826      N2828   1.157       .  T
C2829      C2830   1.423       .  A
C2829      C2834   1.438       .  A
C2830      C2831   1.405       .  A
C2830      H2835   1.084       .  S
C2831      C2832   1.404       .  A
C2831      C2838   1.444       .  S
C2832      C2833   1.391       .  A
C2833      C2834   1.404       .  A
C2833      H2836   1.085       .  S
C2834      C2837   1.440       .  S
C2837      N2839   1.157       .  T
C2838      N2840   1.157       .  T
C2841      C2842   1.398       .  A
C2841      C2846   1.407       .  A
C2842      C2843   1.408       .  A
C2842      H2847   1.086       .  S
C2843      C2844   1.432       .  A
C2843      C2850   1.439       .  S
C2844      C2845   1.421       .  A
C2845      C2846   1.403       .  A
C2845      H2848   1.084       .  S
C2846      C2849   1.444       .  S
C2849      N2851   1.157       .  T
C2850      N2852   1.157       .  T
C2853      C2854   1.402       .  A
C2853      C2858   1.418       .  A
C2854      C2855   1.411       .  A
C2854      H2859   1.083       .  S
C2855      C2856   1.434       .  A
C2855      C2862   1.441       .  S
C2856      C2857   1.416       .  A
C2857      C2858   1.400       .  A
C2857      H2860   1.074       .  S
C2858      C2861   1.445       .  S
C2861      N2863   1.158       .  T
C2862      N2864   1.157       .  T
C2865      C2866   1.418       .  A
C2865      C2870   1.437       .  A
C2866      C2867   1.402       .  A
C2866      H2871   1.085       .  S
C2867      C2868   1.413       .  A
C2867      C2874   1.443       .  S
C2868      C2869   1.398       .  A
C2869      C2870   1.404       .  A
C2869      H2872   1.080       .  S
C2870      C2873   1.444       .  S
C2873      N2875   1.158       .  T
C2874      N2876   1.157       .  T
C2877      C2878   1.424       .  A
C2877      C2882   1.434       .  A
C2878      C2879   1.405       .  A
C2878      H2883   1.080       .  S
C2879      C2880   1.404       .  A
C2879      C2886   1.443       .  S
C2880      C2881   1.397       .  A
C2881      C2882   1.406       .  A
C2881      H2884   1.086       .  S
C2882      C2885   1.442       .  S
C2885      N2887   1.157       .  T
C2886      N2888   1.157       .  T
C2889      C2890   1.415       .  A
C2889      C2894   1.432       .  A
C2890      C2891   1.407       .  A
C2890      H2895   1.077       .  S
C2891      C2892   1.409       .  A
C2891      C2898   1.438       .  S
C2892      C2893   1.401       .  A
C2893      C2894   1.402       .  A
C2893      H2896   1.086       .  S
C2894      C2897   1.444       .  S
C2897      N2899   1.158       .  T
C2898      N2900   1.156       .  T
C2901      C2902   1.416       .  A
C2901      C2906   1.431       .  A
C2902      C2903   1.401       .  A
C2902      H2907   1.080       .  S
C2903      C2904   1.418       .  A
C2903      C2910   1.445       .  S
C2904      C2905   1.406       .  A
C2905      C2906   1.408       .  A
C2905      H2908   1.080       .  S
C2906      C2909   1.444       .  S
C2909      N2911   1.158       .  T
C2910      N2912   1.158       .  T
C2913      C2914   1.418       .  A
C2913      C2918   1.434       .  A
C2914      C2915   1.411       .  A
C2914      H2919   1.079       .  S
C2915      C2916   1.408       .  A
C2915      C2922   1.442       .  S
C2916      C2917   1.397       .  A
C2917      C2918   1.404       .  A
C2917      H2920   1.085       .  S
C2918      C2921   1.445       .  S
C2921      N2923   1.157       .  T
C2922      N2924   1.157       .  T
C2925      C2926   1.416       .  A
C2925      C2930   1.429       .  A
C2926      C2927   1.397       .  A
C2926      H2931   1.080       .  S
C2927      C2928   1.418       .  A
C2927      C2934   1.445       .  S
C2928      C2929   1.410       .  A
C2929      C2930   1.413       .  A
C2929      H2932   1.080       .  S
C2930      C2933   1.443       .  S
C2933      N2935   1.158       .  T
C2934      N2936   1.158       .  T
C2937      C2938   1.397       .  A
C2937      C2942   1.403       .  A
C2938      C2939   1.401       .  A
C2938      H2943   1.085       .  S
C2939      C2940   1.432       .  A
C2939      C2946   1.445       .  S
C2940      C2941   1.420       .  A
C2941      C2942   1.404       .  A
C2941      H2944   1.078       .  S
C2942      C2945   1.444       .  S
C2945      N2947   1.157       .  T
C2946      N2948   1.157       .  T
C2949      C2950   1.401       .  A
C2949      C2954   1.406       .  A
C2950      C2951   1.403       .  A
C2950      H2955   1.085       .  S
C2951      C2952   1.431       .  A
C2951      C2958   1.443       .  S
C2952      C2953   1.424       .  A
C2953      C2954   1.407       .  A
C2953      H2956   1.080       .  S
C2954      C2957   1.443       .  S
C2957      N2959   1.157       .  T
C2958      N2960   1.158       .  T
C2961      C2962   1.418       .  A
C2961      C2966   1.434       .  A
C2962      C2963   1.408       .  A
C2962      H2967   1.080       .  S
C2963      C2964   1.409       .  A
C2963      C2970   1.443       .  S
C2964      C2965   1.395       .  A
C2965      C2966   1.399       .  A
C2965      H2968   1.086       .  S
C2966      C2969   1.444       .  S
C2969      N2971   1.158       .  T
C2970      N2972   1.157       .  T
C2973      C2974   1.409       .  A
C2973      C2978   1.416       .  A
C2974      C2975   1.410       .  A
C2974      H2979   1.081       .  S
C2975      C2976   1.426       .  A
C2975      C2982   1.444       .  S
C2976      C2977   1.416       .  A
C2977      C2978   1.395       .  A
C2977      H2980   1.080       .  S
C2978      C2981   1.446       .  S
C2981      N2983   1.158       .  T
C2982      N2984   1.157       .  T
C2985      C2986   1.422       .  A
C2985      C2990   1.435       .  A
C2986      C2987   1.405       .  A
C2986      H2991   1.076       .  S
C2987      C2988   1.405       .  A
C2987      C2994   1.443       .  S
C2988      C2989   1.401       .  A
C2989      C2990   1.406       .  A
C2989      H2992   1.085       .  S
C2990      C2993   1.445       .  S
C2993      N2995   1.157       .  T
C2994      N2996   1.157       .  T
C2997      C2998   1.399       .  A
C2997      C3002   1.407       .  A
C2998      C2999   1.402       .  A
C2998      H3003   1.085       .  S
C2999      C3000   1.432       .  A
C2999      C3006   1.445       .  S
C3000      C3001   1.420       .  A
C3001      C3002   1.407       .  A
C3001      H3004   1.079       .  S
C3002      C3005   1.442       .  S
C3005      N3007   1.157       .  T
C3006      N3008   1.157       .  T
C3009      C3010   1.415       .  A
C3009      C3014   1.432       .  A
C3010      C3011   1.399       .  A
C3010      H3015   1.075       .  S
C3011      C3012   1.419       .  A
C3011      C3018   1.446       .  S
C3012      C3013   1.406       .  A
C3013      C3014   1.413       .  A
C3013      H3016   1.082       .  S
C3014      C3017   1.444       .  S
C3017      N3019   1.157       .  T
C3018      N3020   1.158       .  T
C3021      C3022   1.424       .  A
C3021      C3026   1.429       .  A
C3022      C3023   1.405       .  A
C3022      H3027   1.078       .  S
C3023      C3024   1.405       .  A
C3023      C3030   1.444       .  S
C3024      C3025   1.405       .  A
C3025      C3026   1.407       .  A
C3025      H3028   1.085       .  S
C3026      C3029   1.445       .  S
C3029      N3031   1.157       .  T
C3030      N3032   1.157       .  T
C3033      C3034   1.420       .  A
C3033      C3038   1.434       .  A
C3034      C3035   1.412       .  A
C3034      H3039   1.085       .  S
C3035      C3036   1.417       .  A
C3035      C3042   1.442       .  S
C3036      C3037   1.405       .  A
C3037      C3038   1.401       .  A
C3037      H3040   1.084       .  S
C3038      C3041   1.445       .  S
C3041      N3043   1.158       .  T
C3042      N3044   1.158       .  T
C3045      C3046   1.423       .  A
C3045      C3050   1.431       .  A
C3046      C3047   1.409       .  A
C3046      H3051   1.080       .  S
C3047      C3048   1.407       .  A
C3047      C3054   1.443       .  S
C3048      C3049   1.395       .  A
C3049      C3050   1.400       .  A
C3049      H3052   1.086       .  S
C3050      C3053   1.440       .  S
C3053      N3055   1.157       .  T
C3054      N3056   1.157       .  T
C3057      C3058   1.394       .  A
C3057      C3062   1.398       .  A
C3058      C3059   1.410       .  A
C3058      H3063   1.084       .  S
C3059      C3060   1.443       .  A
C3059      C3066   1.444       .  S
C3060      C3061   1.427       .  A
C3061      C3062   1.404       .  A
C3061      H3064   1.068       .  S
C3062      C3065   1.444       .  S
C3065      N3067   1.157       .  T
C3066      N3068   1.158       .  T
C3069      C3070   1.422       .  A
C3069      C3074   1.447       .  A
C3070      C3071   1.401       .  A
C3070      H3075   1.075       .  S
C3071      C3072   1.401       .  A
C3071      C3078   1.445       .  S
C3072      C3073   1.393       .  A
C3073      C3074   1.409       .  A
C3073      H3076   1.085       .  S
C3074      C3077   1.443       .  S
C3077      N3079   1.158       .  T
C3078      N3080   1.157       .  T
