geometry optimzed in LAMMPS
_audit_creation_date              2020-11-30 
_audit_creation_method            'lammps2cif' 
_symmetry_space_group_name_H-M    'P1' 
_symmetry_Int_Tables_number       1 
_symmetry_cell_setting            triclinic 
loop_ 
_symmetry_equiv_pos_as_xyz 
  x,y,z 
_cell_length_a                    47.93853348 
_cell_length_b                    47.942180387773334 
_cell_length_c                    43.5508087526506 
_cell_angle_alpha                 89.91567033391158 
_cell_angle_beta                  89.95248566458706 
_cell_angle_gamma                 90.14594285369621 
loop_ 
_atom_site_label 
_atom_site_type_symbol 
_atom_site_fract_x 
_atom_site_fract_y 
_atom_site_fract_z 
_atom_site_charge 
O1          O  0.20692976  0.02288871  0.49927729    -0.71700
O2          O  0.12767264  0.02278127  0.00033880    -0.71900
O3          O  0.16772950  0.02302161  0.04333360    -0.71800
O4          O  0.16676869  0.02260948  0.45616885    -0.71800
O5          O  0.16742867  0.47736296  0.45645408    -0.71700
O6          O  0.16702804  0.47777193  0.04358055    -0.71700
O7          O  0.12766379  0.47741667  0.49983817    -0.71700
O8          O  0.20683358  0.47765356  0.00024603    -0.71900
V9          V  0.16728529  0.02195510  0.99976425     1.35200
V10         V  0.16725287  0.47843598  0.00002541     1.35200
C11         C  0.22046415  0.50026394  0.99981505     0.77600
C12         C  0.11428453  0.00006262  0.00016991     0.77600
C13         C  0.16735954  0.00045012  0.05838080     0.77500
C14         C  0.16692272  0.99992478  0.44137957     0.77400
O15         O  0.20659242  0.02135487  0.25019959    -0.71700
O16         O  0.12739129  0.02144273  0.24951693    -0.71900
O17         O  0.16658025  0.02115884  0.29347410    -0.71800
O18         O  0.16733067  0.02156663  0.20633559    -0.71800
O19         O  0.16662020  0.47631883  0.20620607    -0.71700
O20         O  0.16706875  0.47590851  0.29336448    -0.71700
O21         O  0.12724614  0.47607685  0.25005887    -0.71700
O22         O  0.20646406  0.47611641  0.24947568    -0.71900
V23         V  0.16697883  0.02050058  0.24989716     1.35200
V24         V  0.16685792  0.47698060  0.24977639     1.35200
C25         C  0.22010776  0.49872681  0.24976069     0.77600
C26         C  0.11393712  0.99877385  0.24976116     0.77600
C27         C  0.16673872  0.99847507  0.30835058     0.77500
C28         C  0.16695767  0.99899625  0.19134519     0.77400
O29         O  0.05331603  0.32413325  0.50037496    -0.71700
O30         O  0.05320764  0.40326574  0.00152462    -0.71900
O31         O  0.05260375  0.36315903  0.04452713    -0.71800
O32         O  0.05368932  0.36432981  0.45724916    -0.71800
O33         O  0.00844235  0.36261348  0.45686006    -0.71700
O34         O  0.00736915  0.36426300  0.04391615    -0.71700
O35         O  0.00787941  0.40310365  0.49938174    -0.71700
O36         O  0.00807385  0.32384948  0.00124245    -0.71900
V37         V  0.05233489  0.36370793  0.50091211     1.35200
V38         V  0.00881803  0.36347559  0.50036576     1.35200
C39         C  0.03075929  0.31041646  0.50082012     0.77600
C40         C  0.03054940  0.41656439  0.50038225     0.77600
C41         C  0.02978791  0.36376768  0.05915980     0.77500
C42         C  0.03116669  0.36334776  0.44214456     0.77400
O43         O  0.05315894  0.32306669  0.25161878    -0.71700
O44         O  0.05321185  0.40230074  0.24927211    -0.71900
O45         O  0.05371935  0.36381433  0.29404098    -0.71800
O46         O  0.05277167  0.36177227  0.20700274    -0.71800
O47         O  0.00755400  0.36334041  0.20738626    -0.71700
O48         O  0.00847991  0.36186170  0.29466844    -0.71700
O49         O  0.00789501  0.40215915  0.25179688    -0.71700
O50         O  0.00792829  0.32302117  0.25032445    -0.71900
V51         V  0.05234034  0.36270816  0.25050149     1.35200
V52         V  0.00882752  0.36258867  0.25104237     1.35200
C53         C  0.03050299  0.30946427  0.25097020     0.77600
C54         C  0.03053502  0.41560567  0.25042440     0.77600
C55         C  0.03127281  0.36301647  0.30926340     0.77500
C56         C  0.03009597  0.36267044  0.19225265     0.77400
O57         O  0.35475382  0.47808536  0.49967959    -0.71700
O58         O  0.43399106  0.47740180  0.99938870    -0.71900
O59         O  0.39451039  0.47710086  0.04302929    -0.71800
O60         O  0.39421842  0.47828099  0.45597739    -0.71800
O61         O  0.39436964  0.02353090  0.45645309    -0.71700
O62         O  0.39530692  0.02234524  0.04367206    -0.71700
O63         O  0.43439282  0.02276898  0.49960176    -0.71700
O64         O  0.35523142  0.02331884  0.00062732    -0.71900
V65         V  0.39437681  0.47859981  0.99951021     1.35200
V66         V  0.39481354  0.02211651  0.00007630     1.35200
C67         C  0.34142186  0.50082578  0.00026751     0.77600
C68         C  0.44757193  0.50000934  0.99952123     0.77600
C69         C  0.39507240  0.49950224  0.05827119     0.77500
C70         C  0.39415914  0.50104948  0.44128229     0.77400
O71         O  0.35446945  0.47715745  0.24962588    -0.71700
O72         O  0.43364950  0.47664460  0.24992553    -0.71900
O73         O  0.39384785  0.47710482  0.29340627    -0.71800
O74         O  0.39428658  0.47684812  0.20618894    -0.71800
O75         O  0.39511207  0.02209356  0.20613589    -0.71700
O76         O  0.39377227  0.02235494  0.29320087    -0.71700
O77         O  0.43402009  0.02200988  0.25031271    -0.71700
O78         O  0.35479115  0.02239799  0.24895061    -0.71900
V79         V  0.39406399  0.47781185  0.24980034     1.35200
V80         V  0.39440856  0.02133118  0.24965042     1.35200
C81         C  0.34105777  0.49983982  0.24915858     0.77600
C82         C  0.44721706  0.49924504  0.25015337     0.77600
C83         C  0.39368674  0.49977396  0.30823735     0.77500
C84         C  0.39494158  0.49948677  0.19123777     0.77400
O85         O  0.03004959  0.03957444  0.02478108    -0.71700
O86         O  0.03154647  0.46039508  0.02512222    -0.71900
O87         O  0.07043664  0.50085878  0.02508223    -0.71800
O88         O  0.49120985  0.49912113  0.02472788    -0.71800
O89         O  0.49145314  0.50073672  0.47479843    -0.71700
O90         O  0.07060076  0.49899099  0.47517030    -0.71700
O91         O  0.02997406  0.46027281  0.47519652    -0.71700
O92         O  0.03203194  0.03949056  0.47487169    -0.71900
V93         V  0.03082056  0.49998224  0.02397070     1.35200
V94         V  0.03102161  0.49987561  0.47597366     1.35200
C95         C  0.03107459  0.05291604  0.49978381     0.77600
C96         C  0.03063751  0.44695734  0.50022714     0.77600
C97         C  0.08389636  0.49996820  0.00015858     0.77500
C98         C  0.47795787  0.49989782  0.99968674     0.77400
O99         O  0.07019863  0.49815912  0.27478632    -0.71700
O100        O  0.49102429  0.49988883  0.27500762    -0.71900
O101        O  0.02966938  0.45944397  0.27510566    -0.71800
O102        O  0.03153742  0.03862667  0.27466869    -0.71800
O103        O  0.02986707  0.03848922  0.22474936    -0.71700
O104        O  0.03126424  0.45927649  0.22517696    -0.71700
O105        O  0.49094734  0.49812050  0.22509064    -0.71700
O106        O  0.07015646  0.49961468  0.22485146    -0.71900
V107        V  0.03061086  0.49902651  0.27392447     1.35200
V108        V  0.03055418  0.49887791  0.22592508     1.35200
C109        C  0.08355270  0.49883205  0.24979229     0.77600
C110        C  0.47760965  0.49906233  0.25008780     0.77600
C111        C  0.03048388  0.44598766  0.25022208     0.77500
C112        C  0.03071426  0.05194279  0.24964509     0.77400
O113        O  0.00775216  0.17570530  0.49934780    -0.71700
O114        O  0.00821739  0.09652098  0.00038615    -0.71900
O115        O  0.00829909  0.13655197  0.04341157    -0.71800
O116        O  0.00776471  0.13565317  0.45624863    -0.71800
O117        O  0.05300989  0.13693486  0.45588627    -0.71700
O118        O  0.05355130  0.13619859  0.04302129    -0.71700
O119        O  0.05357013  0.09690408  0.49903228    -0.71700
O120        O  0.05299626  0.17613402  0.99984623    -0.71900
V121        V  0.00888645  0.13611811  0.99983008     1.35200
V122        V  0.05240655  0.13652508  0.99945357     1.35200
C123        C  0.03027130  0.18949239  0.99967484     0.77600
C124        C  0.03096543  0.08332608  0.99970917     0.77600
C125        C  0.03102826  0.13647272  0.05814702     0.77500
C126        C  0.03030122  0.13623582  0.44114324     0.77400
O127        O  0.00840643  0.17498924  0.25019654    -0.71700
O128        O  0.00810224  0.09574215  0.24942975    -0.71900
O129        O  0.00841779  0.13498919  0.29338113    -0.71800
O130        O  0.00805574  0.13579172  0.20626370    -0.71800
O131        O  0.05330723  0.13540977  0.20595360    -0.71700
O132        O  0.05367906  0.13545828  0.29314095    -0.71700
O133        O  0.05347001  0.09575364  0.24966614    -0.71700
O134        O  0.05365174  0.17493736  0.24952788    -0.71900
V135        V  0.00912318  0.13536642  0.24981084     1.35200
V136        V  0.05264729  0.13536348  0.24956261     1.35200
C137        C  0.03109690  0.18853392  0.24999729     0.77600
C138        C  0.03075981  0.08235889  0.24953486     0.77600
C139        C  0.03110274  0.13533125  0.30818179     0.77500
C140        C  0.03059606  0.13577204  0.19117754     0.77400
C141        C  0.05530316  0.14040565  0.39099432    -0.21200
C142        C  0.03025598  0.13609334  0.40712973    -0.09300
C143        C  0.00552224  0.13161301  0.39039958     0.29600
C144        C  0.00602638  0.13141836  0.35831540    -0.21200
C145        C  0.03109191  0.13563347  0.34218763    -0.09300
C146        C  0.05579950  0.14024928  0.35891360     0.29600
F147        F  0.08043809  0.14496409  0.34440069    -0.19800
H148        H  0.07462982  0.14406948  0.40322399     0.18000
H149        H  0.48669859  0.12778365  0.34607688     0.18000
F150        F  0.48084380  0.12710432  0.40490623    -0.19800
C151        C  0.00577865  0.13547339  0.10834890    -0.21200
C152        C  0.03113348  0.13663622  0.09217504    -0.09300
C153        C  0.05625012  0.13789607  0.10888998     0.29600
C154        C  0.05584020  0.13760845  0.14097751    -0.21200
C155        C  0.03049434  0.13621047  0.15714903    -0.09300
C156        C  0.00536127  0.13530496  0.14043050     0.29600
F157        F  0.48030780  0.13413195  0.15492899    -0.19800
H158        H  0.48611523  0.13459129  0.09615250     0.18000
H159        H  0.07549804  0.13852642  0.15318099     0.18000
F160        F  0.08127300  0.13950337  0.09437764    -0.19800
C161        C  0.39429801  0.02549547  0.35818136    -0.21200
C162        C  0.39351545  0.49999828  0.34227294    -0.09300
C163        C  0.39272897  0.47500118  0.35926167     0.29600
C164        C  0.39290729  0.47564512  0.39131745    -0.21200
C165        C  0.39383345  0.50110489  0.40724814    -0.09300
C166        C  0.39445311  0.02613768  0.39028785     0.29600
F167        F  0.39532128  0.05127310  0.40456880    -0.19800
H168        H  0.39489650  0.04507637  0.34575971     0.18000
H169        H  0.39232936  0.45603834  0.40369035     0.18000
F170        F  0.39178174  0.44984031  0.34504841    -0.19800
C171        C  0.39734939  0.02435824  0.10849662    -0.21200
C172        C  0.39542175  0.49913307  0.09227722    -0.09300
C173        C  0.39377591  0.47394942  0.10892431     0.29600
C174        C  0.39376134  0.47424292  0.14102784    -0.21200
C175        C  0.39541840  0.49952482  0.15722530    -0.09300
C176        C  0.39739989  0.02464944  0.14054794     0.29600
F177        F  0.39942621  0.04960396  0.15506587    -0.19800
H178        H  0.39881580  0.04404290  0.09635544     0.18000
H179        H  0.39230160  0.45458159  0.15321558     0.18000
F180        F  0.39199251  0.44900402  0.09433729    -0.19800
C181        C  0.00582869  0.23406648  0.24878185    -0.21200
C182        C  0.03116273  0.21946272  0.25032763    -0.09300
C183        C  0.05624403  0.23475316  0.25222584     0.31400
C184        C  0.05580158  0.26391164  0.25248630    -0.21200
C185        C  0.03046677  0.27852009  0.25086782    -0.09300
C186        C  0.00538496  0.26321611  0.24901623     0.29600
F187        F  0.48034891  0.27628359  0.24729099    -0.19800
H188        H  0.48620066  0.22290969  0.24727980     0.18000
H189        H  0.07542807  0.27507158  0.25397320     0.18000
F190        F  0.08126546  0.22165787  0.25397280    -0.19800
C191        C  0.00545925  0.26475036  0.99959853    -0.21200
C192        C  0.03082179  0.27948084  0.50071058    -0.09300
C193        C  0.05594450  0.26430755  0.50154965     0.29600
C194        C  0.05551959  0.23515706  0.50116238    -0.21200
C195        C  0.03016177  0.22042476  0.99997118    -0.09300
C196        C  0.00503508  0.23559211  0.99923187     0.29600
F197        F  0.47998013  0.22238340  0.99810211    -0.19800
H198        H  0.48579799  0.27581372  0.99892369     0.18000
H199        H  0.07518570  0.22410209  0.50184640     0.18000
F200        F  0.08100227  0.27750114  0.50283781    -0.19800
C201        C  0.05507747  0.37186392  0.39189272    -0.21200
C202        C  0.03128714  0.36311264  0.40815987    -0.09300
C203        C  0.00762182  0.35435679  0.39160768     0.29600
C204        C  0.00782231  0.35452127  0.35954393    -0.21200
C205        C  0.03156518  0.36326115  0.34324500    -0.09300
C206        C  0.05526413  0.37205434  0.35975827     0.29600
F207        F  0.07840775  0.38141128  0.34495752    -0.19800
H208        H  0.07347607  0.37892546  0.40406631     0.18000
H209        H  0.48938553  0.34747011  0.34743247     0.18000
F210        F  0.48440341  0.34508732  0.40632210    -0.19800
C211        C  0.05477693  0.36238496  0.10938128    -0.21200
C212        C  0.02949009  0.36379054  0.09320467    -0.09300
C213        C  0.00433834  0.36508586  0.10993402     0.29600
C214        C  0.00469291  0.36466724  0.14206187    -0.21200
C215        C  0.03001897  0.36306715  0.15820470    -0.09300
C216        C  0.05514285  0.36206444  0.14143417     0.29600
F217        F  0.08019253  0.36075267  0.15586088    -0.19800
H218        H  0.07446089  0.36146669  0.09720381     0.18000
H219        H  0.98504792  0.36563625  0.15431002     0.18000
F220        F  0.97935965  0.36680991  0.09540265    -0.19800
C221        C  0.29550033  0.47438737  0.25051088    -0.21200
C222        C  0.31011600  0.49980852  0.24901448    -0.09300
C223        C  0.29481612  0.02482864  0.24758503     0.29600
C224        C  0.26565004  0.02424803  0.24786734    -0.21200
C225        C  0.25104877  0.49882397  0.24948985    -0.09300
C226        C  0.26634889  0.47380316  0.25074148     0.29600
F227        F  0.25327560  0.44869611  0.25236108    -0.19800
H228        H  0.30664966  0.45479121  0.25162399     0.18000
H229        H  0.25448397  0.04383443  0.24675254     0.18000
F230        F  0.30790979  0.04991976  0.24586442    -0.19800
C231        C  0.29574711  0.47561599  0.99961764    -0.21200
C232        C  0.31048268  0.50097413  0.00041551    -0.09300
C233        C  0.29530247  0.02610428  0.50119352     0.29600
C234        C  0.26612575  0.02567006  0.50095643    -0.21200
C235        C  0.25141006  0.50029022  0.00003563    -0.09300
C236        C  0.26660239  0.47517815  0.99945482     0.29600
F237        F  0.25342784  0.45009843  0.99862092    -0.19800
H238        H  0.30679712  0.45594572  0.99905082     0.18000
H239        H  0.25504547  0.04532275  0.50153815     0.18000
F240        F  0.30852200  0.05116000  0.50218226    -0.19800
C241        C  0.16349350  0.02381663  0.35827610    -0.21200
C242        C  0.16651905  0.99851605  0.34238064    -0.09300
C243        C  0.16933185  0.47365453  0.35937005     0.29600
C244        C  0.16935608  0.47432271  0.39146657    -0.21200
C245        C  0.16655527  0.99967130  0.40734963    -0.09300
C246        C  0.16343899  0.02447541  0.39034656     0.29600
F247        F  0.16015727  0.04942821  0.40456516    -0.19800
H248        H  0.16108383  0.04325215  0.34586470     0.18000
H249        H  0.17173116  0.45489453  0.40390028     0.18000
F250        F  0.17230996  0.44867375  0.34512069    -0.19800
C251        C  0.16534178  0.47495606  0.10834206    -0.21200
C252        C  0.16723679  0.00038719  0.09239159    -0.09300
C253        C  0.16891177  0.02535636  0.10930652     0.29600
C254        C  0.16877449  0.02468395  0.14139360    -0.21200
C255        C  0.16695158  0.99922564  0.15733144    -0.09300
C256        C  0.16515895  0.47428573  0.14039894     0.29600
F257        F  0.16309984  0.44917370  0.15466654    -0.19800
H258        H  0.16391482  0.45541438  0.09598568     0.18000
H259        H  0.17016931  0.04421333  0.15377752     0.18000
F260        F  0.17078607  0.05046622  0.09499758    -0.19800
O261        O  0.20692975  0.02288869  0.99927740    -0.71700
O262        O  0.12767265  0.02278133  0.50033881    -0.71900
O263        O  0.16772957  0.02302166  0.54333356    -0.71800
O264        O  0.16676873  0.02260942  0.95616889    -0.71800
O265        O  0.16742866  0.47736297  0.95645410    -0.71700
O266        O  0.16702804  0.47777192  0.54358056    -0.71700
O267        O  0.12766380  0.47741669  0.99983816    -0.71700
O268        O  0.20683356  0.47765352  0.50024605    -0.71900
V269        V  0.16728530  0.02195515  0.49976420     1.35200
V270        V  0.16725286  0.47843595  0.50002542     1.35200
C271        C  0.22046413  0.50026390  0.49981511     0.77600
C272        C  0.11428453  0.00006268  0.50016987     0.77600
C273        C  0.16735955  0.00045017  0.55838076     0.77500
C274        C  0.16692269  0.99992472  0.94137959     0.77400
O275        O  0.20659242  0.02135490  0.75019964    -0.71700
O276        O  0.12739128  0.02144276  0.74951685    -0.71900
O277        O  0.16658019  0.02115886  0.79347408    -0.71800
O278        O  0.16733072  0.02156668  0.70633557    -0.71800
O279        O  0.16662024  0.47631887  0.70620608    -0.71700
O280        O  0.16706877  0.47590845  0.79336448    -0.71700
O281        O  0.12724616  0.47607685  0.75005886    -0.71700
O282        O  0.20646408  0.47611640  0.74947567    -0.71900
V283        V  0.16697883  0.02050062  0.74989714     1.35200
V284        V  0.16685794  0.47698060  0.74977639     1.35200
C285        C  0.22010778  0.49872681  0.74976067     0.77600
C286        C  0.11393713  0.99877386  0.74976109     0.77600
C287        C  0.16673867  0.99847510  0.80835056     0.77500
C288        C  0.16695770  0.99899631  0.69134515     0.77400
O289        O  0.05331598  0.32413327  0.00037498    -0.71700
O290        O  0.05320764  0.40326575  0.50152470    -0.71900
O291        O  0.05260378  0.36315899  0.54452716    -0.71800
O292        O  0.05368932  0.36432975  0.95724914    -0.71800
O293        O  0.00844234  0.36261351  0.95686001    -0.71700
O294        O  0.00736919  0.36426300  0.54391619    -0.71700
O295        O  0.00787941  0.40310367  0.99938171    -0.71700
O296        O  0.00807390  0.32384946  0.50124251    -0.71900
V297        V  0.05233487  0.36370793  0.00091208     1.35200
V298        V  0.00881801  0.36347561  0.00036572     1.35200
C299        C  0.03075925  0.31041649  0.00082011     0.77600
C300        C  0.03054940  0.41656439  0.00038220     0.77600
C301        C  0.02978795  0.36376765  0.55915984     0.77500
C302        C  0.03116670  0.36334773  0.94214453     0.77400
O303        O  0.05315893  0.32306671  0.75161868    -0.71700
O304        O  0.05321185  0.40230076  0.74927215    -0.71900
O305        O  0.05371937  0.36381428  0.79404097    -0.71800
O306        O  0.05277165  0.36177235  0.70700274    -0.71800
O307        O  0.00755398  0.36334037  0.70738627    -0.71700
O308        O  0.00847992  0.36186181  0.79466844    -0.71700
O309        O  0.00789501  0.40215918  0.75179680    -0.71700
O310        O  0.00792828  0.32302118  0.75032454    -0.71900
V311        V  0.05234033  0.36270818  0.75050148     1.35200
V312        V  0.00882751  0.36258870  0.75104238     1.35200
C313        C  0.03050298  0.30946428  0.75097019     0.77600
C314        C  0.03053502  0.41560570  0.75042438     0.77600
C315        C  0.03127283  0.36301649  0.80926339     0.77500
C316        C  0.03009595  0.36267047  0.69225267     0.77400
O317        O  0.35475380  0.47808534  0.99967953    -0.71700
O318        O  0.43399107  0.47740185  0.49938867    -0.71900
O319        O  0.39451045  0.47710089  0.54302932    -0.71800
O320        O  0.39421844  0.47828096  0.95597737    -0.71800
O321        O  0.39436964  0.02353089  0.95645312    -0.71700
O322        O  0.39530694  0.02234528  0.54367203    -0.71700
O323        O  0.43439281  0.02276897  0.99960180    -0.71700
O324        O  0.35523141  0.02331887  0.50062731    -0.71900
V325        V  0.39437682  0.47859985  0.49951023     1.35200
V326        V  0.39481354  0.02211653  0.50007627     1.35200
C327        C  0.34142185  0.50082579  0.50026754     0.77600
C328        C  0.44757195  0.50000939  0.49952121     0.77600
C329        C  0.39507242  0.49950227  0.55827122     0.77500
C330        C  0.39415913  0.50104945  0.94128227     0.77400
O331        O  0.35446948  0.47715745  0.74962588    -0.71700
O332        O  0.43364955  0.47664463  0.74992555    -0.71900
O333        O  0.39384789  0.47710482  0.79340629    -0.71800
O334        O  0.39428662  0.47684811  0.70618897    -0.71800
O335        O  0.39511206  0.02209357  0.70613589    -0.71700
O336        O  0.39377232  0.02235497  0.79320090    -0.71700
O337        O  0.43402011  0.02200987  0.75031268    -0.71700
O338        O  0.35479115  0.02239800  0.74895067    -0.71900
V339        V  0.39406402  0.47781185  0.74980036     1.35200
V340        V  0.39440858  0.02133119  0.74965043     1.35200
C341        C  0.34105780  0.49983981  0.74915858     0.77600
C342        C  0.44721709  0.49924508  0.75015339     0.77600
C343        C  0.39368678  0.49977396  0.80823736     0.77500
C344        C  0.39494159  0.49948676  0.69123780     0.77400
O345        O  0.03004960  0.03957443  0.52478109    -0.71700
O346        O  0.03154646  0.46039511  0.52512223    -0.71900
O347        O  0.07043665  0.50085878  0.52508220    -0.71800
O348        O  0.49120988  0.49912120  0.52472782    -0.71800
O349        O  0.49145311  0.50073674  0.97479849    -0.71700
O350        O  0.07060075  0.49899103  0.97517033    -0.71700
O351        O  0.02997407  0.46027283  0.97519652    -0.71700
O352        O  0.03203198  0.03949058  0.97487167    -0.71900
V353        V  0.03082058  0.49998226  0.52397066     1.35200
V354        V  0.03102159  0.49987562  0.97597370     1.35200
C355        C  0.03107461  0.05291605  0.99978380     0.77600
C356        C  0.03063752  0.44695734  0.00022712     0.77600
C357        C  0.08389636  0.49996817  0.50015855     0.77500
C358        C  0.47795789  0.49989786  0.49968668     0.77400
O359        O  0.07019863  0.49815919  0.77478633    -0.71700
O360        O  0.49102431  0.49988890  0.77500763    -0.71900
O361        O  0.02966941  0.45944400  0.77510565    -0.71800
O362        O  0.03153749  0.03862663  0.77466865    -0.71800
O363        O  0.02986703  0.03848919  0.72474932    -0.71700
O364        O  0.03126424  0.45927653  0.72517695    -0.71700
O365        O  0.49094735  0.49812057  0.72509065    -0.71700
O366        O  0.07015649  0.49961470  0.72485148    -0.71900
V367        V  0.03061087  0.49902654  0.77392447     1.35200
V368        V  0.03055419  0.49887796  0.72592508     1.35200
C369        C  0.08355272  0.49883208  0.74979232     0.77600
C370        C  0.47760967  0.49906240  0.75008781     0.77600
C371        C  0.03048389  0.44598770  0.75022206     0.77500
C372        C  0.03071428  0.05194275  0.74964505     0.77400
O373        O  0.00775216  0.17570531  0.99934776    -0.71700
O374        O  0.00821738  0.09652098  0.50038615    -0.71900
O375        O  0.00829911  0.13655195  0.54341158    -0.71800
O376        O  0.00776472  0.13565314  0.95624862    -0.71800
O377        O  0.05300990  0.13693482  0.95588626    -0.71700
O378        O  0.05355132  0.13619856  0.54302129    -0.71700
O379        O  0.05357014  0.09690409  0.99903231    -0.71700
O380        O  0.05299626  0.17613400  0.49984627    -0.71900
V381        V  0.00888644  0.13611811  0.49983010     1.35200
V382        V  0.05240655  0.13652507  0.49945358     1.35200
C383        C  0.03027130  0.18949237  0.49967487     0.77600
C384        C  0.03096542  0.08332607  0.49970916     0.77600
C385        C  0.03102828  0.13647270  0.55814702     0.77500
C386        C  0.03030123  0.13623578  0.94114322     0.77400
O387        O  0.00840645  0.17498921  0.75019656    -0.71700
O388        O  0.00810226  0.09574213  0.74942971    -0.71900
O389        O  0.00841781  0.13498916  0.79338111    -0.71800
O390        O  0.00805576  0.13579173  0.70626368    -0.71800
O391        O  0.05330724  0.13540973  0.70595358    -0.71700
O392        O  0.05367908  0.13545828  0.79314093    -0.71700
O393        O  0.05347003  0.09575361  0.74966614    -0.71700
O394        O  0.05365176  0.17493734  0.74952782    -0.71900
V395        V  0.00912321  0.13536641  0.74981083     1.35200
V396        V  0.05264731  0.13536345  0.74956259     1.35200
C397        C  0.03109691  0.18853390  0.74999729     0.77600
C398        C  0.03075982  0.08235886  0.74953484     0.77600
C399        C  0.03110276  0.13533124  0.80818177     0.77500
C400        C  0.03059607  0.13577204  0.69117753     0.77400
C401        C  0.05530319  0.14040562  0.89099430    -0.21200
C402        C  0.03025599  0.13609332  0.90712971    -0.09300
C403        C  0.00552224  0.13161305  0.89039955     0.29600
C404        C  0.00602638  0.13141843  0.85831537    -0.21200
C405        C  0.03109192  0.13563348  0.84218760    -0.09300
C406        C  0.05579951  0.14024924  0.85891357     0.29600
F407        F  0.08043812  0.14496398  0.84440067    -0.19800
H408        H  0.07462983  0.14406941  0.90322395     0.18000
H409        H  0.48669854  0.12778379  0.84607688     0.18000
F410        F  0.48084380  0.12710440  0.90490625    -0.19800
C411        C  0.00577868  0.13547336  0.60834889    -0.21200
C412        C  0.03113351  0.13663622  0.59217503    -0.09300
C413        C  0.05625015  0.13789613  0.60888997     0.29600
C414        C  0.05584023  0.13760851  0.64097751    -0.21200
C415        C  0.03049436  0.13621050  0.65714901    -0.09300
C416        C  0.00536129  0.13530496  0.64043049     0.29600
F417        F  0.48030779  0.13413204  0.65492896    -0.19800
H418        H  0.48611525  0.13459131  0.59615250     0.18000
H419        H  0.07549805  0.13852650  0.65318100     0.18000
F420        F  0.08127303  0.13950348  0.59437764    -0.19800
C421        C  0.39429805  0.02549552  0.85818139    -0.21200
C422        C  0.39351548  0.49999826  0.84227294    -0.09300
C423        C  0.39272897  0.47500116  0.85926168     0.29600
C424        C  0.39290724  0.47564512  0.89131745    -0.21200
C425        C  0.39383344  0.50110487  0.90724813    -0.09300
C426        C  0.39445315  0.02613770  0.89028790     0.29600
F427        F  0.39532133  0.05127312  0.90456886    -0.19800
H428        H  0.39489655  0.04507635  0.84575979     0.18000
H429        H  0.39232928  0.45603833  0.90369035     0.18000
F430        F  0.39178177  0.44984029  0.84504842    -0.19800
C431        C  0.39734940  0.02435824  0.60849662    -0.21200
C432        C  0.39542178  0.49913310  0.59227727    -0.09300
C433        C  0.39377594  0.47394941  0.60892436     0.29600
C434        C  0.39376135  0.47424294  0.64102784    -0.21200
C435        C  0.39541838  0.49952478  0.65722533    -0.09300
C436        C  0.39739990  0.02464945  0.64054792     0.29600
F437        F  0.39942624  0.04960397  0.65506585    -0.19800
H438        H  0.39881584  0.04404296  0.59635542     0.18000
H439        H  0.39230160  0.45458148  0.65321565     0.18000
F440        F  0.39199256  0.44900402  0.59433729    -0.19800
C441        C  0.00582872  0.23406648  0.74878196    -0.21200
C442        C  0.03116274  0.21946271  0.75032764    -0.09300
C443        C  0.05624405  0.23475317  0.75222577     0.31400
C444        C  0.05580157  0.26391163  0.75248622    -0.21200
C445        C  0.03046679  0.27852009  0.75086782    -0.09300
C446        C  0.00538496  0.26321608  0.74901633     0.29600
F447        F  0.48034894  0.27628361  0.74729089    -0.19800
H448        H  0.48620069  0.22290971  0.74727970     0.18000
H449        H  0.07542814  0.27507160  0.75397305     0.18000
F450        F  0.08126548  0.22165786  0.75397271    -0.19800
C451        C  0.00545930  0.26475032  0.49959852    -0.21200
C452        C  0.03082178  0.27948087  0.00071058    -0.09300
C453        C  0.05594447  0.26430761  0.00154967     0.29600
C454        C  0.05551959  0.23515710  0.00116239    -0.21200
C455        C  0.03016178  0.22042474  0.49997119    -0.09300
C456        C  0.00503509  0.23559210  0.49923187     0.29600
F457        F  0.47998012  0.22238339  0.49810220    -0.19800
H458        H  0.48579800  0.27581372  0.49892377     0.18000
H459        H  0.07518566  0.22410217  0.00184640     0.18000
F460        F  0.08100222  0.27750122  0.00283784    -0.19800
C461        C  0.05507751  0.37186381  0.89189269    -0.21200
C462        C  0.03128718  0.36311260  0.90815984    -0.09300
C463        C  0.00762182  0.35435684  0.89160763     0.29600
C464        C  0.00782232  0.35452136  0.85954391    -0.21200
C465        C  0.03156520  0.36326116  0.84324499    -0.09300
C466        C  0.05526420  0.37205427  0.85975827     0.29600
F467        F  0.07840783  0.38141116  0.84495751    -0.19800
H468        H  0.07347619  0.37892530  0.90406634     0.18000
H469        H  0.48938552  0.34747026  0.84743246     0.18000
F470        F  0.48440340  0.34508740  0.90632209    -0.19800
C471        C  0.05477698  0.36238510  0.60938133    -0.21200
C472        C  0.02949010  0.36379053  0.59320472    -0.09300
C473        C  0.00433833  0.36508569  0.60993407     0.29600
C474        C  0.00469292  0.36466711  0.64206189    -0.21200
C475        C  0.03001895  0.36306718  0.65820475    -0.09300
C476        C  0.05514285  0.36206460  0.64143423     0.29600
F477        F  0.08019255  0.36075296  0.65586094    -0.19800
H478        H  0.07446091  0.36146694  0.59720390     0.18000
H479        H  0.98504787  0.36563600  0.65431006     0.18000
F480        F  0.97935963  0.36680943  0.59540268    -0.19800
C481        C  0.29550035  0.47438736  0.75051081    -0.21200
C482        C  0.31011604  0.49980851  0.74901446    -0.09300
C483        C  0.29481612  0.02482865  0.74758519     0.29600
C484        C  0.26565006  0.02424802  0.74786749    -0.21200
C485        C  0.25104880  0.49882394  0.74948980    -0.09300
C486        C  0.26634891  0.47380315  0.75074140     0.29600
F487        F  0.25327563  0.44869611  0.75236100    -0.19800
H488        H  0.30664967  0.45479121  0.75162391     0.18000
H489        H  0.25448397  0.04383449  0.74675274     0.18000
F490        F  0.30790980  0.04991976  0.74586460    -0.19800
C491        C  0.29574709  0.47561600  0.49961766    -0.21200
C492        C  0.31048266  0.50097409  0.50041555    -0.09300
C493        C  0.29530247  0.02610430  0.00119354     0.29600
C494        C  0.26612578  0.02567003  0.00095649    -0.21200
C495        C  0.25141005  0.50029020  0.50003574    -0.09300
C496        C  0.26660240  0.47517811  0.49945489     0.29600
F497        F  0.25342783  0.45009839  0.49862100    -0.19800
H498        H  0.30679718  0.45594562  0.49905080     0.18000
H499        H  0.25504545  0.04532283  0.00153828     0.18000
F500        F  0.30852205  0.05116000  0.00218234    -0.19800
C501        C  0.16349349  0.02381660  0.85827614    -0.21200
C502        C  0.16651898  0.99851609  0.84238062    -0.09300
C503        C  0.16933177  0.47365443  0.85937012     0.29600
C504        C  0.16935600  0.47432269  0.89146660    -0.21200
C505        C  0.16655524  0.99967128  0.90734963    -0.09300
C506        C  0.16343898  0.02447541  0.89034657     0.29600
F507        F  0.16015731  0.04942817  0.90456525    -0.19800
H508        H  0.16108385  0.04325225  0.84586471     0.18000
H509        H  0.17173103  0.45489440  0.90390039     0.18000
F510        F  0.17230979  0.44867365  0.84512074    -0.19800
C511        C  0.16534179  0.47495607  0.60834208    -0.21200
C512        C  0.16723680  0.00038723  0.59239154    -0.09300
C513        C  0.16891176  0.02535641  0.60930646     0.29600
C514        C  0.16877452  0.02468401  0.64139355    -0.21200
C515        C  0.16695160  0.99922569  0.65733139    -0.09300
C516        C  0.16515899  0.47428580  0.64039899     0.29600
F517        F  0.16309988  0.44917375  0.65466656    -0.19800
H518        H  0.16391481  0.45541446  0.59598576     0.18000
H519        H  0.17016934  0.04421338  0.65377746     0.18000
F520        F  0.17078595  0.05046628  0.59499752    -0.19800
O521        O  0.20693698  0.52288866  0.49927745    -0.71700
O522        O  0.12767987  0.52278149  0.00033871    -0.71900
O523        O  0.16773669  0.52302206  0.04333360    -0.71800
O524        O  0.16677608  0.52260926  0.45616893    -0.71800
O525        O  0.16742139  0.97736317  0.45645376    -0.71700
O526        O  0.16702113  0.97777148  0.04358024    -0.71700
O527        O  0.12765666  0.97741653  0.49983804    -0.71700
O528        O  0.20682645  0.97765354  0.00024551    -0.71900
V529        V  0.16729254  0.52195524  0.99976425     1.35200
V530        V  0.16724572  0.97843583  0.00002512     1.35200
C531        C  0.22045696  0.00026397  0.99981486     0.77600
C532        C  0.11429171  0.50006287  0.00016973     0.77600
C533        C  0.16736653  0.50045067  0.05838096     0.77500
C534        C  0.16693008  0.49992451  0.44137976     0.77400
O535        O  0.20659884  0.52135516  0.25020014    -0.71700
O536        O  0.12739770  0.52144326  0.24951717    -0.71900
O537        O  0.16658660  0.52115897  0.29347445    -0.71800
O538        O  0.16733721  0.52156733  0.20633593    -0.71800
O539        O  0.16661414  0.97631812  0.20620598    -0.71700
O540        O  0.16706214  0.97590837  0.29336440    -0.71700
O541        O  0.12723981  0.97607632  0.25005847    -0.71700
O542        O  0.20645775  0.97611610  0.24947591    -0.71900
V543        V  0.16698526  0.52050100  0.24989753     1.35200
V544        V  0.16685160  0.97698018  0.24977631     1.35200
C545        C  0.22010139  0.99872656  0.24976053     0.77600
C546        C  0.11394349  0.49877440  0.24976151     0.77600
C547        C  0.16674530  0.49847512  0.30835079     0.77500
C548        C  0.16696400  0.49899703  0.19134540     0.77400
O549        O  0.05331367  0.82413397  0.50037525    -0.71700
O550        O  0.05320216  0.90326641  0.00152460    -0.71900
O551        O  0.05259965  0.86315990  0.04452730    -0.71800
O552        O  0.05368556  0.86433031  0.45724924    -0.71800
O553        O  0.00843863  0.86261264  0.45685995    -0.71700
O554        O  0.00736499  0.86426151  0.04391608    -0.71700
O555        O  0.00787387  0.90310259  0.49938202    -0.71700
O556        O  0.00807157  0.82384840  0.00124201    -0.71900
V557        V  0.05233093  0.86370858  0.50091222     1.35200
V558        V  0.00881407  0.86347453  0.50036566     1.35200
C559        C  0.03075749  0.81041629  0.50082001     0.77600
C560        C  0.03054337  0.91656419  0.50038247     0.77600
C561        C  0.02978371  0.86376740  0.05915986     0.77500
C562        C  0.03116301  0.86334754  0.44214455     0.77400
O563        O  0.05315552  0.82306718  0.25161858    -0.71700
O564        O  0.05320636  0.90230116  0.24927216    -0.71900
O565        O  0.05371506  0.86381468  0.29404091    -0.71800
O566        O  0.05276711  0.86177289  0.20700272    -0.71800
O567        O  0.00754939  0.86333942  0.20738634    -0.71700
O568        O  0.00847564  0.86186120  0.29466858    -0.71700
O569        O  0.00788951  0.90215842  0.25179664    -0.71700
O570        O  0.00792485  0.82302043  0.25032484    -0.71900
V571        V  0.05233589  0.86270860  0.25050144     1.35200
V572        V  0.00882306  0.86258796  0.25104248     1.35200
C573        C  0.03049993  0.80946416  0.25097031     0.77600
C574        C  0.03052919  0.91560551  0.25042422     0.77600
C575        C  0.03126859  0.86301638  0.30926343     0.77500
C576        C  0.03009137  0.86267036  0.19225269     0.77400
O577        O  0.35474660  0.97808556  0.49968028    -0.71700
O578        O  0.43398387  0.97740181  0.99938913    -0.71900
O579        O  0.39450341  0.97710096  0.04302989    -0.71800
O580        O  0.39421109  0.97828108  0.45597796    -0.71800
O581        O  0.39437665  0.52353080  0.45645253    -0.71700
O582        O  0.39531411  0.52234514  0.04367145    -0.71700
O583        O  0.43439993  0.52276900  0.49960104    -0.71700
O584        O  0.35523855  0.52331865  0.00062685    -0.71900
V585        V  0.39436963  0.97859992  0.99951080     1.35200
V586        V  0.39482065  0.52211640  0.00007568     1.35200
C587        C  0.34141470  0.00082599  0.00026811     0.77600
C588        C  0.44756479  0.00000933  0.99952190     0.77600
C589        C  0.39506543  0.99950234  0.05827178     0.77500
C590        C  0.39415196  0.00104958  0.44128284     0.77400
O591        O  0.35446307  0.97715747  0.24962624    -0.71700
O592        O  0.43364313  0.97664467  0.24992616    -0.71900
O593        O  0.39384133  0.97710489  0.29340679    -0.71800
O594        O  0.39428032  0.97684814  0.20618946    -0.71800
O595        O  0.39511826  0.52209354  0.20613540    -0.71700
O596        O  0.39377893  0.52235488  0.29320040    -0.71700
O597        O  0.43402650  0.52200981  0.25031206    -0.71700
O598        O  0.35479757  0.52239797  0.24895047    -0.71900
V599        V  0.39405760  0.97781188  0.24980085     1.35200
V600        V  0.39441498  0.52133114  0.24964996     1.35200
C601        C  0.34105138  0.99983982  0.24915868     0.77600
C602        C  0.44721067  0.99924512  0.25015396     0.77600
C603        C  0.39368006  0.99977404  0.30823784     0.77500
C604        C  0.39493542  0.99948678  0.19123829     0.77400
O605        O  0.03005592  0.53957457  0.02478038    -0.71700
O606        O  0.03153872  0.96039487  0.02512271    -0.71900
O607        O  0.07042956  0.00085788  0.02508269    -0.71800
O608        O  0.49120273  0.99912168  0.02472856    -0.71800
O609        O  0.49144592  0.00073604  0.47479915    -0.71700
O610        O  0.07059349  0.99899150  0.47517072    -0.71700
O611        O  0.02996746  0.96027270  0.47519699    -0.71700
O612        O  0.03203978  0.53949064  0.47487097    -0.71900
V613        V  0.03081346  0.99998206  0.02397128     1.35200
V614        V  0.03101435  0.99987551  0.47597428     1.35200
C615        C  0.03108152  0.55291614  0.49978305     0.77600
C616        C  0.03063049  0.94695715  0.50022756     0.77600
C617        C  0.08388919  0.99996794  0.00015895     0.77500
C618        C  0.47795072  0.99989775  0.99968740     0.77400
O619        O  0.07019237  0.99815920  0.27478615    -0.71700
O620        O  0.49101805  0.99988816  0.27500794    -0.71900
O621        O  0.02966357  0.95944370  0.27510555    -0.71800
O622        O  0.03154399  0.53862696  0.27466840    -0.71800
O623        O  0.02987263  0.53848925  0.22474910    -0.71700
O624        O  0.03125694  0.95927637  0.22517679    -0.71700
O625        O  0.49094083  0.99812127  0.22509091    -0.71700
O626        O  0.07015000  0.99961371  0.22485126    -0.71900
V627        V  0.03060462  0.99902622  0.27392453     1.35200
V628        V  0.03054769  0.99887783  0.22592512     1.35200
C629        C  0.08354633  0.99883151  0.24979204     0.77600
C630        C  0.47760328  0.99906242  0.25008818     0.77600
C631        C  0.03047740  0.94598748  0.25022190     0.77500
C632        C  0.03072009  0.55194294  0.24964473     0.77400
O633        O  0.00775531  0.67570451  0.49934728    -0.71700
O634        O  0.00822304  0.59652032  0.00038569    -0.71900
O635        O  0.00830379  0.63655130  0.04341098    -0.71800
O636        O  0.00776870  0.63565239  0.45624822    -0.71800
O637        O  0.05301384  0.63693558  0.45588536    -0.71700
O638        O  0.05355602  0.63619928  0.04302048    -0.71700
O639        O  0.05357580  0.59690481  0.49903129    -0.71700
O640        O  0.05299943  0.67613468  0.99984539    -0.71900
V641        V  0.00889084  0.63611743  0.99982959     1.35200
V642        V  0.05241095  0.63652575  0.99945268     1.35200
C643        C  0.03027403  0.68949231  0.99967422     0.77600
C644        C  0.03097148  0.58332613  0.99970842     0.77600
C645        C  0.03103300  0.63647282  0.05814633     0.77500
C646        C  0.03030503  0.63623581  0.44114257     0.77400
O647        O  0.00840796  0.67498848  0.25019576    -0.71700
O648        O  0.00810667  0.59574148  0.24942885    -0.71900
O649        O  0.00842053  0.63498846  0.29338035    -0.71800
O650        O  0.00805915  0.63579110  0.20626277    -0.71800
O651        O  0.05331065  0.63541071  0.20595316    -0.71700
O652        O  0.05368177  0.63545916  0.29314037    -0.71700
O653        O  0.05347444  0.59575454  0.24966572    -0.71700
O654        O  0.05365328  0.67493824  0.24952743    -0.71900
V655        V  0.00912620  0.63536575  0.24980999     1.35200
V656        V  0.05265030  0.63536435  0.24956212     1.35200
C657        C  0.03109792  0.68853396  0.24999675     0.77600
C658        C  0.03076469  0.58235902  0.24953430     0.77600
C659        C  0.03110543  0.63533134  0.30818112     0.77500
C660        C  0.03059963  0.63577228  0.19117686     0.77400
C661        C  0.05530657  0.64040474  0.39099339    -0.21200
C662        C  0.03025941  0.63609343  0.40712907    -0.09300
C663        C  0.00552529  0.63161426  0.39039916     0.29600
C664        C  0.00602912  0.63141966  0.35831495    -0.21200
C665        C  0.03109470  0.63563366  0.34218696    -0.09300
C666        C  0.05580263  0.64024840  0.35891272     0.29600
F667        F  0.08044135  0.64496201  0.34439963    -0.19800
H668        H  0.07463357  0.64406768  0.40322287     0.18000
H669        H  0.48670113  0.62778590  0.34607671     0.18000
F670        F  0.48084677  0.62710677  0.40490610    -0.19800
C671        C  0.00578314  0.63547296  0.10834794    -0.21200
C672        C  0.03113811  0.63663652  0.09217435    -0.09300
C673        C  0.05625455  0.63789734  0.10888955     0.29600
C674        C  0.05584429  0.63760972  0.14097709    -0.21200
C675        C  0.03049832  0.63621088  0.15714835    -0.09300
C676        C  0.00536546  0.63530464  0.14042953     0.29600
F677        F  0.48031186  0.63413105  0.15492769    -0.19800
H678        H  0.48611992  0.63459030  0.09615141     0.18000
H679        H  0.07550201  0.63852835  0.15318083     0.18000
F680        F  0.08127747  0.63950559  0.09437743    -0.19800
C681        C  0.39430529  0.52549539  0.35818083    -0.21200
C682        C  0.39350857  0.99999838  0.34227344    -0.09300
C683        C  0.39272229  0.97500127  0.35926220     0.29600
C684        C  0.39290046  0.97564522  0.39131798    -0.21200
C685        C  0.39382629  0.00110500  0.40724867    -0.09300
C686        C  0.39446055  0.52613756  0.39028733     0.29600
F687        F  0.39532917  0.55127298  0.40456826    -0.19800
H688        H  0.39490398  0.54507622  0.34575922     0.18000
H689        H  0.39232273  0.95603843  0.40369089     0.18000
F690        F  0.39177545  0.94984038  0.34504895    -0.19800
C691        C  0.39735506  0.52435824  0.10849604    -0.21200
C692        C  0.39541512  0.99913316  0.09227780    -0.09300
C693        C  0.39376876  0.97394953  0.10892487     0.29600
C694        C  0.39375442  0.97424301  0.14102837    -0.21200
C695        C  0.39541228  0.99952483  0.15722584    -0.09300
C696        C  0.39740527  0.52464946  0.14054738     0.29600
F697        F  0.39943058  0.54960408  0.15506526    -0.19800
H698        H  0.39882092  0.54404289  0.09635490     0.18000
H699        H  0.39229416  0.95458166  0.15321613     0.18000
F700        F  0.39198454  0.94900419  0.09433783    -0.19800
C701        C  0.00582807  0.73406561  0.24878144    -0.21200
C702        C  0.03116261  0.71946272  0.25032729    -0.09300
C703        C  0.05624336  0.73475398  0.25222583     0.31400
C704        C  0.05579994  0.76391242  0.25248647    -0.21200
C705        C  0.03046462  0.77852000  0.25086788    -0.09300
C706        C  0.00538333  0.76321521  0.24901606     0.29600
F707        F  0.48034691  0.77628189  0.24729050    -0.19800
H708        H  0.48620043  0.72290815  0.24727903     0.18000
H709        H  0.07542601  0.77507297  0.25397359     0.18000
F710        F  0.08126523  0.72165955  0.25397301    -0.19800
C711        C  0.00545931  0.76474927  0.99959868    -0.21200
C712        C  0.03082122  0.77948070  0.50071037    -0.09300
C713        C  0.05594452  0.76430838  0.50154889     0.29600
C714        C  0.05552071  0.73515787  0.50116148    -0.21200
C715        C  0.03016347  0.72042464  0.99997068    -0.09300
C716        C  0.00503620  0.73559106  0.99923190     0.29600
F717        F  0.47998162  0.72238141  0.99810256    -0.19800
H718        H  0.48579753  0.77581189  0.99892431     0.18000
H719        H  0.07518721  0.72410364  0.50184504     0.18000
F720        F  0.08100181  0.77750292  0.50283661    -0.19800
C721        C  0.05507298  0.87186568  0.39189259    -0.21200
C722        C  0.03128351  0.86311229  0.40815986    -0.09300
C723        C  0.00761891  0.85435427  0.39160779     0.29600
C724        C  0.00781919  0.85451889  0.35954407    -0.21200
C725        C  0.03156114  0.86326096  0.34324502    -0.09300
C726        C  0.05525945  0.87205620  0.35975814     0.29600
F727        F  0.07840208  0.88141534  0.34495719    -0.19800
H728        H  0.07347104  0.87892891  0.40406615     0.18000
H729        H  0.48938291  0.84746601  0.34743269     0.18000
F730        F  0.48440148  0.84508249  0.40632243    -0.19800
C731        C  0.05477270  0.86238885  0.10938147    -0.21200
C732        C  0.02948570  0.86379046  0.09320473    -0.09300
C733        C  0.00433367  0.86508217  0.10993396     0.29600
C734        C  0.00468817  0.86466364  0.14206181    -0.21200
C735        C  0.03001439  0.86306731  0.15820476    -0.09300
C736        C  0.05513851  0.86206855  0.14143435     0.29600
F737        F  0.08018838  0.86076110  0.15586118    -0.19800
H738        H  0.07445686  0.86147366  0.09720413     0.18000
H739        H  0.98504295  0.86562964  0.15430987     0.18000
F740        F  0.97935477  0.86680236  0.09540245    -0.19800
C741        C  0.29549401  0.97438743  0.25051427    -0.21200
C742        C  0.31010962  0.99980846  0.24901432    -0.09300
C743        C  0.29482255  0.52482892  0.24758892     0.29600
C744        C  0.26565650  0.52424832  0.24787119    -0.21200
C745        C  0.25104239  0.99882379  0.24948965    -0.09300
C746        C  0.26634256  0.97380319  0.25074485     0.29600
F747        F  0.25326934  0.94869630  0.25236821    -0.19800
H748        H  0.30664335  0.95479148  0.25163034     0.18000
H749        H  0.25449046  0.54383496  0.24675935     0.18000
F750        F  0.30791628  0.54992022  0.24587219    -0.19800
C751        C  0.29573996  0.97561621  0.99961805    -0.21200
C752        C  0.31047551  0.00097431  0.00041601    -0.09300
C753        C  0.29530964  0.52610411  0.50119318     0.29600
C754        C  0.26613299  0.52566984  0.50095638    -0.21200
C755        C  0.25140289  0.00029033  0.00003570    -0.09300
C756        C  0.26659527  0.97517828  0.99945504     0.29600
F757        F  0.25342075  0.95009855  0.99862114    -0.19800
H758        H  0.30679005  0.95594585  0.99905131     0.18000
H759        H  0.25505264  0.54532272  0.50153826     0.18000
F760        F  0.30852925  0.55115978  0.50218184    -0.19800
C761        C  0.16350107  0.52381649  0.35827644    -0.21200
C762        C  0.16652591  0.49851598  0.34238083    -0.09300
C763        C  0.16932536  0.97365474  0.35936995     0.29600
C764        C  0.16934936  0.97432302  0.39146645    -0.21200
C765        C  0.16656259  0.49967102  0.40734981    -0.09300
C766        C  0.16344675  0.52447525  0.39034682     0.29600
F767        F  0.16016561  0.54942807  0.40456554    -0.19800
H768        H  0.16109174  0.54325226  0.34586505     0.18000
H769        H  0.17172478  0.95489492  0.40390020     0.18000
F770        F  0.17230412  0.94867400  0.34512070    -0.19800
C771        C  0.16533381  0.97495538  0.10834184    -0.21200
C772        C  0.16724359  0.50038791  0.09239175    -0.09300
C773        C  0.16891719  0.52535721  0.10930663     0.29600
C774        C  0.16877973  0.52468486  0.14139374    -0.21200
C775        C  0.16695800  0.49922648  0.15733163    -0.09300
C776        C  0.16515114  0.97428499  0.14039873     0.29600
F777        F  0.16309068  0.94917306  0.15466633    -0.19800
H778        H  0.16390572  0.95541380  0.09598538     0.18000
H779        H  0.17017343  0.54421431  0.15377764     0.18000
F780        F  0.17079021  0.55046713  0.09499762    -0.19800
O781        O  0.20693700  0.52288870  0.99927739    -0.71700
O782        O  0.12767986  0.52278148  0.50033863    -0.71900
O783        O  0.16773662  0.52302205  0.54333358    -0.71800
O784        O  0.16677603  0.52260928  0.95616893    -0.71800
O785        O  0.16742130  0.97736311  0.95645379    -0.71700
O786        O  0.16702106  0.97777153  0.54358020    -0.71700
O787        O  0.12765665  0.97741646  0.99983816    -0.71700
O788        O  0.20682643  0.97765356  0.50024557    -0.71900
V789        V  0.16729253  0.52195521  0.49976424     1.35200
V790        V  0.16724573  0.97843588  0.50002508     1.35200
C791        C  0.22045696  0.00026398  0.49981485     0.77600
C792        C  0.11429171  0.50006285  0.50016970     0.77600
C793        C  0.16736649  0.50045067  0.55838096     0.77500
C794        C  0.16693005  0.49992452  0.94137977     0.77400
O795        O  0.20659887  0.52135516  0.75020015    -0.71700
O796        O  0.12739773  0.52144326  0.74951728    -0.71900
O797        O  0.16658666  0.52115892  0.79347450    -0.71800
O798        O  0.16733719  0.52156736  0.70633598    -0.71800
O799        O  0.16661415  0.97631817  0.70620594    -0.71700
O800        O  0.16706214  0.97590840  0.79336438    -0.71700
O801        O  0.12723983  0.97607634  0.75005842    -0.71700
O802        O  0.20645776  0.97611612  0.74947588    -0.71900
V803        V  0.16698528  0.52050100  0.74989758     1.35200
V804        V  0.16685160  0.97698021  0.74977627     1.35200
C805        C  0.22010139  0.99872658  0.74976055     0.77600
C806        C  0.11394351  0.49877440  0.74976155     0.77600
C807        C  0.16674533  0.49847505  0.80835082     0.77500
C808        C  0.16696401  0.49899708  0.69134543     0.77400
O809        O  0.05331371  0.82413399  0.00037530    -0.71700
O810        O  0.05320212  0.90326639  0.50152462    -0.71900
O811        O  0.05259960  0.86315987  0.54452729    -0.71800
O812        O  0.05368558  0.86433030  0.95724926    -0.71800
O813        O  0.00843864  0.86261275  0.95685998    -0.71700
O814        O  0.00736495  0.86426157  0.54391606    -0.71700
O815        O  0.00787391  0.90310261  0.99938212    -0.71700
O816        O  0.00807154  0.82384837  0.50124208    -0.71900
V817        V  0.05233096  0.86370860  0.00091223     1.35200
V818        V  0.00881410  0.86347455  0.00036568     1.35200
C819        C  0.03075753  0.81041631  0.00081999     0.77600
C820        C  0.03054341  0.91656421  0.00038248     0.77600
C821        C  0.02978366  0.86376742  0.55915984     0.77500
C822        C  0.03116302  0.86334758  0.94214457     0.77400
O823        O  0.05315554  0.82306719  0.75161864    -0.71700
O824        O  0.05320633  0.90230115  0.74927210    -0.71900
O825        O  0.05371505  0.86381475  0.79404093    -0.71800
O826        O  0.05276710  0.86177284  0.70700273    -0.71800
O827        O  0.00754938  0.86333948  0.70738635    -0.71700
O828        O  0.00847564  0.86186110  0.79466861    -0.71700
O829        O  0.00788948  0.90215840  0.75179675    -0.71700
O830        O  0.00792487  0.82302041  0.75032476    -0.71900
V831        V  0.05233588  0.86270860  0.75050145     1.35200
V832        V  0.00882306  0.86258794  0.75104250     1.35200
C833        C  0.03049996  0.80946415  0.75097028     0.77600
C834        C  0.03052915  0.91560549  0.75042422     0.77600
C835        C  0.03126859  0.86301637  0.80926345     0.77500
C836        C  0.03009136  0.86267035  0.69225270     0.77400
O837        O  0.35474662  0.97808553  0.99968029    -0.71700
O838        O  0.43398384  0.97740182  0.49938915    -0.71900
O839        O  0.39450337  0.97710099  0.54302987    -0.71800
O840        O  0.39421111  0.97828107  0.95597796    -0.71800
O841        O  0.39437662  0.52353078  0.95645251    -0.71700
O842        O  0.39531408  0.52234517  0.54367148    -0.71700
O843        O  0.43439992  0.52276896  0.99960099    -0.71700
O844        O  0.35523853  0.52331867  0.50062684    -0.71900
V845        V  0.39436960  0.97859994  0.49951079     1.35200
V846        V  0.39482065  0.52211643  0.50007570     1.35200
C847        C  0.34141469  0.00082601  0.50026812     0.77600
C848        C  0.44756478  0.00000933  0.49952191     0.77600
C849        C  0.39506541  0.99950237  0.55827176     0.77500
C850        C  0.39415197  0.00104957  0.94128286     0.77400
O851        O  0.35446308  0.97715748  0.74962627    -0.71700
O852        O  0.43364312  0.97664467  0.74992620    -0.71900
O853        O  0.39384130  0.97710492  0.79340682    -0.71800
O854        O  0.39428032  0.97684815  0.70618948    -0.71800
O855        O  0.39511828  0.52209353  0.70613541    -0.71700
O856        O  0.39377895  0.52235488  0.79320041    -0.71700
O857        O  0.43402651  0.52200984  0.75031208    -0.71700
O858        O  0.35479759  0.52239797  0.74895047    -0.71900
V859        V  0.39405760  0.97781190  0.74980088     1.35200
V860        V  0.39441500  0.52133114  0.74964997     1.35200
C861        C  0.34105138  0.99983983  0.74915874     0.77600
C862        C  0.44721068  0.99924510  0.75015395     0.77600
C863        C  0.39368008  0.99977407  0.80823787     0.77500
C864        C  0.39493541  0.99948679  0.69123829     0.77400
O865        O  0.03005596  0.53957458  0.52478031    -0.71700
O866        O  0.03153873  0.96039485  0.52512274    -0.71900
O867        O  0.07042957  0.00085788  0.52508269    -0.71800
O868        O  0.49120273  0.99912160  0.52472858    -0.71800
O869        O  0.49144592  0.00073602  0.97479912    -0.71700
O870        O  0.07059350  0.99899150  0.97517072    -0.71700
O871        O  0.02996749  0.96027271  0.97519696    -0.71700
O872        O  0.03203974  0.53949064  0.97487104    -0.71900
V873        V  0.03081346  0.99998204  0.52397130     1.35200
V874        V  0.03101437  0.99987553  0.97597425     1.35200
C875        C  0.03108148  0.55291614  0.99978312     0.77600
C876        C  0.03063052  0.94695717  0.00022754     0.77600
C877        C  0.08388919  0.99996797  0.50015894     0.77500
C878        C  0.47795071  0.99989773  0.49968743     0.77400
O879        O  0.07019238  0.99815911  0.77478609    -0.71700
O880        O  0.49101808  0.99988817  0.77500791    -0.71900
O881        O  0.02966350  0.95944367  0.77510551    -0.71800
O882        O  0.03154397  0.53862699  0.77466841    -0.71800
O883        O  0.02987267  0.53848929  0.72474912    -0.71700
O884        O  0.03125698  0.95927633  0.72517675    -0.71700
O885        O  0.49094084  0.99812117  0.72509088    -0.71700
O886        O  0.07015001  0.99961373  0.72485120    -0.71900
V887        V  0.03060462  0.99902618  0.77392447     1.35200
V888        V  0.03054770  0.99887779  0.72592507     1.35200
C889        C  0.08354634  0.99883150  0.74979198     0.77600
C890        C  0.47760330  0.99906238  0.75008816     0.77600
C891        C  0.03047737  0.94598745  0.75022187     0.77500
C892        C  0.03072009  0.55194297  0.74964475     0.77400
O893        O  0.00775533  0.67570454  0.99934729    -0.71700
O894        O  0.00822306  0.59652030  0.50038572    -0.71900
O895        O  0.00830379  0.63655131  0.54341100    -0.71800
O896        O  0.00776872  0.63565245  0.95624819    -0.71800
O897        O  0.05301386  0.63693556  0.95588532    -0.71700
O898        O  0.05355602  0.63619925  0.54302051    -0.71700
O899        O  0.05357578  0.59690480  0.99903131    -0.71700
O900        O  0.05299940  0.67613468  0.49984546    -0.71900
V901        V  0.00889084  0.63611740  0.49982962     1.35200
V902        V  0.05241094  0.63652575  0.49945271     1.35200
C903        C  0.03027400  0.68949230  0.49967425     0.77600
C904        C  0.03097150  0.58332612  0.49970839     0.77600
C905        C  0.03103300  0.63647279  0.55814634     0.77500
C906        C  0.03030504  0.63623584  0.94114253     0.77400
O907        O  0.00840793  0.67498849  0.75019570    -0.71700
O908        O  0.00810664  0.59574149  0.74942884    -0.71900
O909        O  0.00842047  0.63498848  0.79338030    -0.71800
O910        O  0.00805911  0.63579108  0.70626276    -0.71800
O911        O  0.05331062  0.63541069  0.70595313    -0.71700
O912        O  0.05368172  0.63545917  0.79314033    -0.71700
O913        O  0.05347441  0.59575456  0.74966570    -0.71700
O914        O  0.05365325  0.67493824  0.74952738    -0.71900
V915        V  0.00912616  0.63536576  0.74980996     1.35200
V916        V  0.05265027  0.63536435  0.74956209     1.35200
C917        C  0.03109790  0.68853396  0.74999669     0.77600
C918        C  0.03076467  0.58235904  0.74953430     0.77600
C919        C  0.03110537  0.63533135  0.80818107     0.77500
C920        C  0.03059958  0.63577225  0.69117684     0.77400
C921        C  0.05530657  0.64040476  0.89099333    -0.21200
C922        C  0.03025939  0.63609345  0.90712901    -0.09300
C923        C  0.00552526  0.63161427  0.89039911     0.29600
C924        C  0.00602910  0.63141964  0.85831493    -0.21200
C925        C  0.03109464  0.63563366  0.84218690    -0.09300
C926        C  0.05580258  0.64024841  0.85891264     0.29600
F927        F  0.08044130  0.64496206  0.84439953    -0.19800
H928        H  0.07463355  0.64406769  0.90322277     0.18000
H929        H  0.48670104  0.62778586  0.84607658     0.18000
F930        F  0.48084673  0.62710683  0.90490605    -0.19800
C931        C  0.00578313  0.63547284  0.60834794    -0.21200
C932        C  0.03113806  0.63663646  0.59217432    -0.09300
C933        C  0.05625448  0.63789733  0.60888953     0.29600
C934        C  0.05584429  0.63760971  0.64097713    -0.21200
C935        C  0.03049822  0.63621082  0.65714831    -0.09300
C936        C  0.00536538  0.63530451  0.64042949     0.29600
F937        F  0.48031183  0.63413091  0.65492764    -0.19800
H938        H  0.48611994  0.63459017  0.59615138     0.18000
H939        H  0.07550184  0.63852839  0.65318080     0.18000
F940        F  0.08127745  0.63950566  0.59437750    -0.19800
C941        C  0.39430534  0.52549538  0.85818082    -0.21200
C942        C  0.39350860  0.99999841  0.84227347    -0.09300
C943        C  0.39272232  0.97500131  0.85926221     0.29600
C944        C  0.39290048  0.97564522  0.89131802    -0.21200
C945        C  0.39382632  0.00110503  0.90724870    -0.09300
C946        C  0.39446058  0.52613754  0.89028734     0.29600
F947        F  0.39532922  0.55127297  0.90456826    -0.19800
H948        H  0.39490405  0.54507619  0.84575923     0.18000
H949        H  0.39232275  0.95603850  0.90369087     0.18000
F950        F  0.39177548  0.94984041  0.84504897    -0.19800
C951        C  0.39735507  0.52435822  0.60849610    -0.21200
C952        C  0.39541511  0.99913320  0.59227778    -0.09300
C953        C  0.39376874  0.97394955  0.60892485     0.29600
C954        C  0.39375440  0.97424303  0.64102834    -0.21200
C955        C  0.39541227  0.99952483  0.65722582    -0.09300
C956        C  0.39740524  0.52464945  0.64054741     0.29600
F957        F  0.39943046  0.54960407  0.65506534    -0.19800
H958        H  0.39882095  0.54404297  0.59635491     0.18000
H959        H  0.39229412  0.95458163  0.65321612     0.18000
F960        F  0.39198455  0.94900421  0.59433779    -0.19800
C961        C  0.00582810  0.73406563  0.74878134    -0.21200
C962        C  0.03116261  0.71946272  0.75032722    -0.09300
C963        C  0.05624338  0.73475397  0.75222577     0.31400
C964        C  0.05579997  0.76391240  0.75248643    -0.21200
C965        C  0.03046467  0.77852000  0.75086782    -0.09300
C966        C  0.00538337  0.76321521  0.74901593     0.29600
F967        F  0.48034685  0.77628189  0.74729066    -0.19800
H968        H  0.48620042  0.72290815  0.74727917     0.18000
H969        H  0.07542609  0.77507297  0.75397357     0.18000
F970        F  0.08126524  0.72165950  0.75397294    -0.19800
C971        C  0.00545924  0.76474925  0.49959874    -0.21200
C972        C  0.03082128  0.77948071  0.00071035    -0.09300
C973        C  0.05594459  0.76430837  0.00154893     0.29600
C974        C  0.05552073  0.73515789  0.00116152    -0.21200
C975        C  0.03016341  0.72042462  0.49997069    -0.09300
C976        C  0.00503615  0.73559102  0.49923195     0.29600
F977        F  0.47998162  0.72238141  0.49810258    -0.19800
H978        H  0.48579754  0.77581190  0.49892415     0.18000
H979        H  0.07518731  0.72410361  0.00184512     0.18000
F980        F  0.08100186  0.77750292  0.00283669    -0.19800
C981        C  0.05507301  0.87186567  0.89189263    -0.21200
C982        C  0.03128351  0.86311229  0.90815989    -0.09300
C983        C  0.00761891  0.85435428  0.89160783     0.29600
C984        C  0.00781921  0.85451887  0.85954411    -0.21200
C985        C  0.03156115  0.86326097  0.84324504    -0.09300
C986        C  0.05525945  0.87205621  0.85975816     0.29600
F987        F  0.07840207  0.88141541  0.84495724    -0.19800
H988        H  0.07347102  0.87892887  0.90406615     0.18000
H989        H  0.48938298  0.84746602  0.84743278     0.18000
F990        F  0.48440145  0.84508256  0.90632247    -0.19800
C991        C  0.05477266  0.86238891  0.60938144    -0.21200
C992        C  0.02948566  0.86379048  0.59320471    -0.09300
C993        C  0.00433364  0.86508210  0.60993395     0.29600
C994        C  0.00468813  0.86466356  0.64206182    -0.21200
C995        C  0.03001438  0.86306729  0.65820475    -0.09300
C996        C  0.05513850  0.86206858  0.64143432     0.29600
F997        F  0.08018837  0.86076117  0.65586113    -0.19800
H998        H  0.07445683  0.86147377  0.59720408     0.18000
H999        H  0.98504296  0.86562949  0.65430988     0.18000
F1000       F  0.97935471  0.86680222  0.59540249    -0.19800
C1001       C  0.29549400  0.97438744  0.75051426    -0.21200
C1002       C  0.31010961  0.99980846  0.74901441    -0.09300
C1003       C  0.29482260  0.52482890  0.74758895     0.29600
C1004       C  0.26565651  0.52424834  0.74787118    -0.21200
C1005       C  0.25104239  0.99882380  0.74948970    -0.09300
C1006       C  0.26634256  0.97380318  0.75074483     0.29600
F1007       F  0.25326933  0.94869629  0.75236811    -0.19800
H1008       H  0.30664338  0.95479143  0.75163026     0.18000
H1009       H  0.25449053  0.54383491  0.74675939     0.18000
F1010       F  0.30791630  0.54992022  0.74587235    -0.19800
C1011       C  0.29573995  0.97561620  0.49961815    -0.21200
C1012       C  0.31047551  0.00097431  0.50041605    -0.09300
C1013       C  0.29530969  0.52610413  0.00119308     0.29600
C1014       C  0.26613301  0.52566991  0.00095625    -0.21200
C1015       C  0.25140289  0.00029029  0.50003569    -0.09300
C1016       C  0.26659526  0.97517825  0.49945511     0.29600
F1017       F  0.25342073  0.95009854  0.49862122    -0.19800
H1018       H  0.30679003  0.95594585  0.49905146     0.18000
H1019       H  0.25505273  0.54532269  0.00153808     0.18000
F1020       F  0.30852930  0.55115980  0.00218168    -0.19800
C1021       C  0.16350112  0.52381642  0.85827644    -0.21200
C1022       C  0.16652590  0.49851589  0.84238088    -0.09300
C1023       C  0.16932525  0.97365475  0.85936991     0.29600
C1024       C  0.16934930  0.97432298  0.89146644    -0.21200
C1025       C  0.16656257  0.49967097  0.90734983    -0.09300
C1026       C  0.16344681  0.52447521  0.89034681     0.29600
F1027       F  0.16016584  0.54942807  0.90456549    -0.19800
H1028       H  0.16109187  0.54325222  0.84586502     0.18000
H1029       H  0.17172472  0.95489490  0.90390015     0.18000
F1030       F  0.17230394  0.94867400  0.84512066    -0.19800
C1031       C  0.16533382  0.97495545  0.60834180    -0.21200
C1032       C  0.16724359  0.50038795  0.59239178    -0.09300
C1033       C  0.16891722  0.52535726  0.60930664     0.29600
C1034       C  0.16877978  0.52468491  0.64139375    -0.21200
C1035       C  0.16695804  0.49922655  0.65733167    -0.09300
C1036       C  0.16515115  0.97428504  0.64039867     0.29600
F1037       F  0.16309068  0.94917312  0.65466628    -0.19800
H1038       H  0.16390573  0.95541383  0.59598532     0.18000
H1039       H  0.17017350  0.54421439  0.65377765     0.18000
F1040       F  0.17079025  0.55046716  0.59499760    -0.19800
O1041       O  0.70692976  0.02288869  0.49927736    -0.71700
O1042       O  0.62767265  0.02278127  0.00033887    -0.71900
O1043       O  0.66772957  0.02302164  0.04333360    -0.71800
O1044       O  0.66676873  0.02260947  0.45616887    -0.71800
O1045       O  0.66742863  0.47736297  0.45645408    -0.71700
O1046       O  0.66702805  0.47777193  0.04358055    -0.71700
O1047       O  0.62766381  0.47741668  0.49983822    -0.71700
O1048       O  0.70683359  0.47765354  0.00024603    -0.71900
V1049       V  0.66728530  0.02195511  0.99976425     1.35200
V1050       V  0.66725288  0.47843597  0.00002541     1.35200
C1051       C  0.72046416  0.50026393  0.99981507     0.77600
C1052       C  0.61428454  0.00006263  0.00016997     0.77600
C1053       C  0.66735959  0.00045015  0.05838081     0.77500
C1054       C  0.66692271  0.99992478  0.44137958     0.77400
O1055       O  0.70659245  0.02135489  0.25019960    -0.71700
O1056       O  0.62739131  0.02144275  0.24951692    -0.71900
O1057       O  0.66658025  0.02115885  0.29347410    -0.71800
O1058       O  0.66733070  0.02156665  0.20633560    -0.71800
O1059       O  0.66662024  0.47631884  0.20620608    -0.71700
O1060       O  0.66706878  0.47590849  0.29336448    -0.71700
O1061       O  0.62724616  0.47607683  0.25005886    -0.71700
O1062       O  0.70646409  0.47611641  0.24947569    -0.71900
V1063       V  0.66697885  0.02050060  0.24989716     1.35200
V1064       V  0.66685794  0.47698059  0.24977639     1.35200
C1065       C  0.72010778  0.49872682  0.24976068     0.77600
C1066       C  0.61393714  0.99877387  0.24976116     0.77600
C1067       C  0.66673871  0.99847508  0.30835058     0.77500
C1068       C  0.66695769  0.99899628  0.19134519     0.77400
O1069       O  0.55331605  0.32413326  0.50037496    -0.71700
O1070       O  0.55320760  0.40326575  0.00152462    -0.71900
O1071       O  0.55260374  0.36315903  0.04452713    -0.71800
O1072       O  0.55368932  0.36432982  0.45724917    -0.71800
O1073       O  0.50844235  0.36261346  0.45686005    -0.71700
O1074       O  0.50736914  0.36426299  0.04391616    -0.71700
O1075       O  0.50787937  0.40310364  0.49938174    -0.71700
O1076       O  0.50807387  0.32384948  0.00124246    -0.71900
V1077       V  0.55233487  0.36370795  0.50091212     1.35200
V1078       V  0.50881801  0.36347558  0.50036576     1.35200
C1079       C  0.53075933  0.31041646  0.50082011     0.77600
C1080       C  0.53054935  0.41656439  0.50038225     0.77600
C1081       C  0.52978792  0.36376767  0.05915980     0.77500
C1082       C  0.53116670  0.36334776  0.44214456     0.77400
O1083       O  0.55315893  0.32306669  0.25161877    -0.71700
O1084       O  0.55321184  0.40230074  0.24927210    -0.71900
O1085       O  0.55371938  0.36381433  0.29404097    -0.71800
O1086       O  0.55277165  0.36177227  0.20700273    -0.71800
O1087       O  0.50755399  0.36334042  0.20738626    -0.71700
O1088       O  0.50847993  0.36186170  0.29466845    -0.71700
O1089       O  0.50789501  0.40215915  0.25179689    -0.71700
O1090       O  0.50792829  0.32302117  0.25032446    -0.71900
V1091       V  0.55234034  0.36270816  0.25050148     1.35200
V1092       V  0.50882752  0.36258867  0.25104238     1.35200
C1093       C  0.53050298  0.30946427  0.25097022     0.77600
C1094       C  0.53053501  0.41560567  0.25042440     0.77600
C1095       C  0.53127284  0.36301647  0.30926340     0.77500
C1096       C  0.53009596  0.36267045  0.19225265     0.77400
O1097       O  0.85475385  0.47808536  0.49967959    -0.71700
O1098       O  0.93399108  0.47740180  0.99938868    -0.71900
O1099       O  0.89451045  0.47710086  0.04302929    -0.71800
O1100       O  0.89421845  0.47828099  0.45597740    -0.71800
O1101       O  0.89436960  0.02353090  0.45645309    -0.71700
O1102       O  0.89530693  0.02234524  0.04367206    -0.71700
O1103       O  0.93439280  0.02276899  0.49960179    -0.71700
O1104       O  0.85523142  0.02331887  0.00062733    -0.71900
V1105       V  0.89437683  0.47859982  0.99951020     1.35200
V1106       V  0.89481355  0.02211651  0.00007630     1.35200
C1107       C  0.84142187  0.50082580  0.00026751     0.77600
C1108       C  0.94757195  0.50000934  0.99952123     0.77600
C1109       C  0.89507244  0.49950224  0.05827119     0.77500
C1110       C  0.89415916  0.50104948  0.44128228     0.77400
O1111       O  0.85446946  0.47715744  0.24962592    -0.71700
O1112       O  0.93364951  0.47664461  0.24992549    -0.71900
O1113       O  0.89384791  0.47710482  0.29340627    -0.71800
O1114       O  0.89428655  0.47684812  0.20618893    -0.71800
O1115       O  0.89511208  0.02209358  0.20613589    -0.71700
O1116       O  0.89377232  0.02235496  0.29320088    -0.71700
O1117       O  0.93402011  0.02200989  0.25031268    -0.71700
O1118       O  0.85479117  0.02239801  0.24895063    -0.71900
V1119       V  0.89406400  0.47781184  0.24980033     1.35200
V1120       V  0.89440858  0.02133120  0.24965042     1.35200
C1121       C  0.84105778  0.49983980  0.24915859     0.77600
C1122       C  0.94721706  0.49924505  0.25015337     0.77600
C1123       C  0.89368678  0.49977396  0.30823734     0.77500
C1124       C  0.89494156  0.49948677  0.19123777     0.77400
O1125       O  0.53004959  0.03957444  0.02478109    -0.71700
O1126       O  0.53154645  0.46039508  0.02512222    -0.71900
O1127       O  0.57043663  0.50085877  0.02508222    -0.71800
O1128       O  0.99120987  0.49912113  0.02472788    -0.71800
O1129       O  0.99145314  0.50073675  0.47479844    -0.71700
O1130       O  0.57060077  0.49899102  0.47517031    -0.71700
O1131       O  0.52997408  0.46027281  0.47519652    -0.71700
O1132       O  0.53203199  0.03949056  0.47487169    -0.71900
V1133       V  0.53082055  0.49998223  0.02397070     1.35200
V1134       V  0.53102161  0.49987561  0.47597366     1.35200
C1135       C  0.53107461  0.05291604  0.49978381     0.77600
C1136       C  0.53063746  0.44695734  0.50022714     0.77600
C1137       C  0.58389635  0.49996819  0.00015857     0.77500
C1138       C  0.97795789  0.49989782  0.99968673     0.77400
O1139       O  0.57019863  0.49815912  0.27478634    -0.71700
O1140       O  0.99102430  0.49988883  0.27500763    -0.71900
O1141       O  0.52966936  0.45944396  0.27510566    -0.71800
O1142       O  0.53153744  0.03862667  0.27466869    -0.71800
O1143       O  0.52986710  0.03848922  0.22474935    -0.71700
O1144       O  0.53126426  0.45927648  0.22517696    -0.71700
O1145       O  0.99094733  0.49812050  0.22509065    -0.71700
O1146       O  0.57015649  0.49961467  0.22485149    -0.71900
V1147       V  0.53061086  0.49902650  0.27392447     1.35200
V1148       V  0.53055419  0.49887791  0.22592508     1.35200
C1149       C  0.58355271  0.49883204  0.24979232     0.77600
C1150       C  0.97760965  0.49906234  0.25008781     0.77600
C1151       C  0.53048388  0.44598766  0.25022208     0.77500
C1152       C  0.53071429  0.05194279  0.24964508     0.77400
O1153       O  0.50775216  0.17570530  0.49934780    -0.71700
O1154       O  0.50821738  0.09652099  0.00038615    -0.71900
O1155       O  0.50829910  0.13655197  0.04341156    -0.71800
O1156       O  0.50776471  0.13565316  0.45624862    -0.71800
O1157       O  0.55300989  0.13693487  0.45588626    -0.71700
O1158       O  0.55355131  0.13619858  0.04302129    -0.71700
O1159       O  0.55357015  0.09690408  0.49903227    -0.71700
O1160       O  0.55299628  0.17613401  0.99984623    -0.71900
V1161       V  0.50888646  0.13611812  0.99983008     1.35200
V1162       V  0.55240657  0.13652508  0.99945357     1.35200
C1163       C  0.53027133  0.18949239  0.99967484     0.77600
C1164       C  0.53096542  0.08332608  0.99970917     0.77600
C1165       C  0.53102826  0.13647271  0.05814702     0.77500
C1166       C  0.53030121  0.13623582  0.44114322     0.77400
O1167       O  0.50840644  0.17498925  0.25019653    -0.71700
O1168       O  0.50810226  0.09574215  0.24942973    -0.71900
O1169       O  0.50841778  0.13498920  0.29338111    -0.71800
O1170       O  0.50805574  0.13579173  0.20626368    -0.71800
O1171       O  0.55330722  0.13540978  0.20595359    -0.71700
O1172       O  0.55367904  0.13545829  0.29314094    -0.71700
O1173       O  0.55347002  0.09575365  0.24966613    -0.71700
O1174       O  0.55365174  0.17493737  0.24952787    -0.71900
V1175       V  0.50912319  0.13536643  0.24981083     1.35200
V1176       V  0.55264728  0.13536349  0.24956260     1.35200
C1177       C  0.53109690  0.18853392  0.24999729     0.77600
C1178       C  0.53075982  0.08235890  0.24953485     0.77600
C1179       C  0.53110272  0.13533126  0.30818177     0.77500
C1180       C  0.53059606  0.13577205  0.19117753     0.77400
C1181       C  0.55530313  0.14040565  0.39099429    -0.21200
C1182       C  0.53025596  0.13609334  0.40712971    -0.09300
C1183       C  0.50552221  0.13161301  0.39039955     0.29600
C1184       C  0.50602637  0.13141835  0.35831538    -0.21200
C1185       C  0.53109188  0.13563347  0.34218761    -0.09300
C1186       C  0.55579947  0.14024929  0.35891358     0.29600
F1187       F  0.58043806  0.14496411  0.34440067    -0.19800
H1188       H  0.57462983  0.14406949  0.40322398     0.18000
H1189       H  0.98669863  0.12778367  0.34607693     0.18000
F1190       F  0.98084383  0.12710432  0.40490626    -0.19800
C1191       C  0.50577866  0.13547330  0.10834890    -0.21200
C1192       C  0.53113346  0.13663618  0.09217503    -0.09300
C1193       C  0.55625012  0.13789607  0.10888998     0.29600
C1194       C  0.55584019  0.13760846  0.14097749    -0.21200
C1195       C  0.53049434  0.13621047  0.15714901    -0.09300
C1196       C  0.50536125  0.13530491  0.14043048     0.29600
F1197       F  0.98030781  0.13413197  0.15492900    -0.19800
H1198       H  0.98611528  0.13459142  0.09615254     0.18000
H1199       H  0.57549806  0.13852646  0.15318100     0.18000
F1200       F  0.58127299  0.13950339  0.09437764    -0.19800
C1201       C  0.89429804  0.02549549  0.35818137    -0.21200
C1202       C  0.89351548  0.49999828  0.34227293    -0.09300
C1203       C  0.89272899  0.47500118  0.35926167     0.29600
C1204       C  0.89290726  0.47564512  0.39131745    -0.21200
C1205       C  0.89383345  0.50110489  0.40724813    -0.09300
C1206       C  0.89445313  0.02613768  0.39028786     0.29600
F1207       F  0.89532136  0.05127310  0.40456881    -0.19800
H1208       H  0.89489658  0.04507638  0.34575973     0.18000
H1209       H  0.89232932  0.45603834  0.40369035     0.18000
F1210       F  0.89178180  0.44984030  0.34504840    -0.19800
C1211       C  0.89734941  0.02435824  0.10849662    -0.21200
C1212       C  0.89542180  0.49913307  0.09227722    -0.09300
C1213       C  0.89377597  0.47394942  0.10892430     0.29600
C1214       C  0.89376136  0.47424292  0.14102783    -0.21200
C1215       C  0.89541838  0.49952483  0.15722530    -0.09300
C1216       C  0.89739992  0.02464945  0.14054793     0.29600
F1217       F  0.89942628  0.04960397  0.15506586    -0.19800
H1218       H  0.89881585  0.04404291  0.09635543     0.18000
H1219       H  0.89230162  0.45458159  0.15321557     0.18000
F1220       F  0.89199259  0.44900402  0.09433728    -0.19800
C1221       C  0.50582870  0.23406648  0.24878189    -0.21200
C1222       C  0.53116273  0.21946271  0.25032765    -0.09300
C1223       C  0.55624402  0.23475315  0.25222583     0.31400
C1224       C  0.55580161  0.26391166  0.25248630    -0.21200
C1225       C  0.53046674  0.27852008  0.25086785    -0.09300
C1226       C  0.50538495  0.26321610  0.24901628     0.29600
F1227       F  0.98034892  0.27628360  0.24729094    -0.19800
H1228       H  0.98620066  0.22290970  0.24727975     0.18000
H1229       H  0.57542801  0.27507155  0.25397316     0.18000
F1230       F  0.58126547  0.22165789  0.25397279    -0.19800
C1231       C  0.50545931  0.26475035  0.99959851    -0.21200
C1232       C  0.53082185  0.27948082  0.50071056    -0.09300
C1233       C  0.55594456  0.26430752  0.50154961     0.29600
C1234       C  0.55551958  0.23515706  0.50116235    -0.21200
C1235       C  0.53016183  0.22042476  0.99997119    -0.09300
C1236       C  0.50503513  0.23559212  0.99923186     0.29600
F1237       F  0.97998009  0.22238339  0.99810211    -0.19800
H1238       H  0.98579798  0.27581370  0.99892372     0.18000
H1239       H  0.57518579  0.22410203  0.50184634     0.18000
F1240       F  0.58100231  0.27750113  0.50283776    -0.19800
C1241       C  0.55507750  0.37186391  0.39189273    -0.21200
C1242       C  0.53128716  0.36311264  0.40815986    -0.09300
C1243       C  0.50762184  0.35435680  0.39160766     0.29600
C1244       C  0.50782235  0.35452127  0.35954392    -0.21200
C1245       C  0.53156521  0.36326114  0.34324500    -0.09300
C1246       C  0.55526417  0.37205432  0.35975827     0.29600
F1247       F  0.57840780  0.38141127  0.34495754    -0.19800
H1248       H  0.57347610  0.37892544  0.40406633     0.18000
H1249       H  0.98938550  0.34747011  0.34743250     0.18000
F1250       F  0.98440341  0.34508729  0.40632213    -0.19800
C1251       C  0.55477694  0.36238501  0.10938128    -0.21200
C1252       C  0.52949011  0.36379053  0.09320466    -0.09300
C1253       C  0.50433836  0.36508580  0.10993401     0.29600
C1254       C  0.50469291  0.36466719  0.14206187    -0.21200
C1255       C  0.53001899  0.36306717  0.15820470    -0.09300
C1256       C  0.55514287  0.36206451  0.14143416     0.29600
F1257       F  0.58019254  0.36075285  0.15586089    -0.19800
H1258       H  0.57446092  0.36146678  0.09720381     0.18000
H1259       H  0.48504796  0.36563617  0.15430999     0.18000
F1260       F  0.47935965  0.36680973  0.09540265    -0.19800
C1261       C  0.79550034  0.47438735  0.25051090    -0.21200
C1262       C  0.81011601  0.49980852  0.24901449    -0.09300
C1263       C  0.79481616  0.02482864  0.24758502     0.29600
C1264       C  0.76565005  0.02424806  0.24786733    -0.21200
C1265       C  0.75104878  0.49882398  0.24948984    -0.09300
C1266       C  0.76634888  0.47380318  0.25074148     0.29600
F1267       F  0.75327561  0.44869613  0.25236108    -0.19800
H1268       H  0.80664964  0.45479123  0.25162402     0.18000
H1269       H  0.75448403  0.04383441  0.24675259     0.18000
F1270       F  0.80790982  0.04991976  0.24586444    -0.19800
C1271       C  0.79574713  0.47561599  0.99961764    -0.21200
C1272       C  0.81048268  0.50097414  0.00041551    -0.09300
C1273       C  0.79530247  0.02610429  0.50119367     0.29600
C1274       C  0.76612576  0.02567003  0.50095659    -0.21200
C1275       C  0.75141007  0.50029022  0.00003564    -0.09300
C1276       C  0.76660241  0.47517815  0.99945482     0.29600
F1277       F  0.75342788  0.45009841  0.99862092    -0.19800
H1278       H  0.80679716  0.45594572  0.99905082     0.18000
H1279       H  0.75504544  0.04532278  0.50153839     0.18000
F1280       F  0.80852202  0.05116000  0.50218251    -0.19800
C1281       C  0.66349347  0.02381663  0.35827610    -0.21200
C1282       C  0.66651902  0.99851605  0.34238064    -0.09300
C1283       C  0.66933180  0.47365453  0.35937007     0.29600
C1284       C  0.66935604  0.47432272  0.39146659    -0.21200
C1285       C  0.66655523  0.99967130  0.40734964    -0.09300
C1286       C  0.66343893  0.02447541  0.39034657     0.29600
F1287       F  0.66015717  0.04942820  0.40456517    -0.19800
H1288       H  0.66108382  0.04325215  0.34586471     0.18000
H1289       H  0.67173107  0.45489453  0.40390030     0.18000
F1290       F  0.67230982  0.44867373  0.34512072    -0.19800
C1291       C  0.66534172  0.47495606  0.10834207    -0.21200
C1292       C  0.66723680  0.00038723  0.09239159    -0.09300
C1293       C  0.66891168  0.02535640  0.10930653     0.29600
C1294       C  0.66877440  0.02468399  0.14139361    -0.21200
C1295       C  0.66695156  0.99922567  0.15733145    -0.09300
C1296       C  0.66515887  0.47428574  0.14039895     0.29600
F1297       F  0.66309970  0.44917371  0.15466654    -0.19800
H1298       H  0.66391472  0.45541439  0.09598568     0.18000
H1299       H  0.67016915  0.04421336  0.15377753     0.18000
F1300       F  0.67078591  0.05046627  0.09499760    -0.19800
O1301       O  0.70692975  0.02288869  0.99927734    -0.71700
O1302       O  0.62767265  0.02278131  0.50033881    -0.71900
O1303       O  0.66772954  0.02302163  0.54333357    -0.71800
O1304       O  0.66676869  0.02260942  0.95616890    -0.71800
O1305       O  0.66742869  0.47736298  0.95645410    -0.71700
O1306       O  0.66702810  0.47777192  0.54358057    -0.71700
O1307       O  0.62766380  0.47741669  0.99983815    -0.71700
O1308       O  0.70683358  0.47765352  0.50024600    -0.71900
V1309       V  0.66728531  0.02195513  0.49976423     1.35200
V1310       V  0.66725287  0.47843595  0.50002542     1.35200
C1311       C  0.72046416  0.50026390  0.49981508     0.77600
C1312       C  0.61428453  0.00006267  0.50016990     0.77600
C1313       C  0.66735952  0.00045014  0.55838077     0.77500
C1314       C  0.66692267  0.99992472  0.94137960     0.77400
O1315       O  0.70659245  0.02135488  0.75019958    -0.71700
O1316       O  0.62739132  0.02144274  0.74951690    -0.71900
O1317       O  0.66658027  0.02115886  0.79347408    -0.71800
O1318       O  0.66733068  0.02156665  0.70633556    -0.71800
O1319       O  0.66662025  0.47631887  0.70620608    -0.71700
O1320       O  0.66706876  0.47590845  0.79336448    -0.71700
O1321       O  0.62724616  0.47607683  0.75005885    -0.71700
O1322       O  0.70646408  0.47611642  0.74947569    -0.71900
V1323       V  0.66697886  0.02050060  0.74989714     1.35200
V1324       V  0.66685794  0.47698060  0.74977639     1.35200
C1325       C  0.72010777  0.49872683  0.74976069     0.77600
C1326       C  0.61393716  0.99877384  0.74976112     0.77600
C1327       C  0.66673874  0.99847509  0.80835057     0.77500
C1328       C  0.66695767  0.99899627  0.69134515     0.77400
O1329       O  0.55331600  0.32413328  0.00037497    -0.71700
O1330       O  0.55320760  0.40326576  0.50152471    -0.71900
O1331       O  0.55260376  0.36315900  0.54452717    -0.71800
O1332       O  0.55368930  0.36432976  0.95724916    -0.71800
O1333       O  0.50844233  0.36261350  0.95686002    -0.71700
O1334       O  0.50736916  0.36426298  0.54391619    -0.71700
O1335       O  0.50787937  0.40310366  0.99938172    -0.71700
O1336       O  0.50807392  0.32384945  0.50124250    -0.71900
V1337       V  0.55233485  0.36370794  0.00091209     1.35200
V1338       V  0.50881799  0.36347560  0.00036573     1.35200
C1339       C  0.53075928  0.31041649  0.00082011     0.77600
C1340       C  0.53054936  0.41656439  0.00038221     0.77600
C1341       C  0.52978792  0.36376766  0.55915985     0.77500
C1342       C  0.53116669  0.36334774  0.94214454     0.77400
O1343       O  0.55315896  0.32306671  0.75161873    -0.71700
O1344       O  0.55321185  0.40230078  0.74927210    -0.71900
O1345       O  0.55371940  0.36381435  0.79404097    -0.71800
O1346       O  0.55277167  0.36177232  0.70700274    -0.71800
O1347       O  0.50755400  0.36334041  0.70738629    -0.71700
O1348       O  0.50847996  0.36186176  0.79466846    -0.71700
O1349       O  0.50789501  0.40215917  0.75179688    -0.71700
O1350       O  0.50792831  0.32302119  0.75032452    -0.71900
V1351       V  0.55234036  0.36270819  0.75050148     1.35200
V1352       V  0.50882754  0.36258870  0.75104240     1.35200
C1353       C  0.53050301  0.30946428  0.75097022     0.77600
C1354       C  0.53053501  0.41560571  0.75042439     0.77600
C1355       C  0.53127287  0.36301650  0.80926341     0.77500
C1356       C  0.53009597  0.36267047  0.69225268     0.77400
O1357       O  0.85475382  0.47808535  0.99967955    -0.71700
O1358       O  0.93399110  0.47740185  0.49938868    -0.71900
O1359       O  0.89451047  0.47710090  0.54302932    -0.71800
O1360       O  0.89421845  0.47828097  0.95597737    -0.71800
O1361       O  0.89436964  0.02353089  0.95645312    -0.71700
O1362       O  0.89530689  0.02234528  0.54367204    -0.71700
O1363       O  0.93439282  0.02276896  0.99960180    -0.71700
O1364       O  0.85523139  0.02331887  0.50062730    -0.71900
V1365       V  0.89437685  0.47859985  0.49951023     1.35200
V1366       V  0.89481352  0.02211653  0.50007628     1.35200
C1367       C  0.84142188  0.50082579  0.50026752     0.77600
C1368       C  0.94757197  0.50000940  0.49952122     0.77600
C1369       C  0.89507243  0.49950228  0.55827122     0.77500
C1370       C  0.89415914  0.50104946  0.94128227     0.77400
O1371       O  0.85446942  0.47715745  0.74962587    -0.71700
O1372       O  0.93364949  0.47664463  0.74992558    -0.71900
O1373       O  0.89384779  0.47710483  0.79340629    -0.71800
O1374       O  0.89428656  0.47684812  0.70618897    -0.71800
O1375       O  0.89511211  0.02209356  0.70613589    -0.71700
O1376       O  0.89377234  0.02235497  0.79320090    -0.71700
O1377       O  0.93402013  0.02200987  0.75031270    -0.71700
O1378       O  0.85479118  0.02239800  0.74895065    -0.71900
V1379       V  0.89406396  0.47781185  0.74980036     1.35200
V1380       V  0.89440861  0.02133119  0.74965043     1.35200
C1381       C  0.84105776  0.49983982  0.74915857     0.77600
C1382       C  0.94721704  0.49924508  0.75015342     0.77600
C1383       C  0.89368668  0.49977397  0.80823736     0.77500
C1384       C  0.89494153  0.49948676  0.69123780     0.77400
O1385       O  0.53004955  0.03957443  0.52478109    -0.71700
O1386       O  0.53154641  0.46039510  0.52512223    -0.71900
O1387       O  0.57043664  0.50085875  0.52508222    -0.71800
O1388       O  0.99120989  0.49912118  0.52472783    -0.71800
O1389       O  0.99145313  0.50073673  0.97479849    -0.71700
O1390       O  0.57060073  0.49899102  0.97517032    -0.71700
O1391       O  0.52997404  0.46027282  0.97519652    -0.71700
O1392       O  0.53203195  0.03949058  0.97487168    -0.71900
V1393       V  0.53082056  0.49998225  0.52397066     1.35200
V1394       V  0.53102158  0.49987562  0.97597370     1.35200
C1395       C  0.53107459  0.05291605  0.99978381     0.77600
C1396       C  0.53063747  0.44695734  0.00022712     0.77600
C1397       C  0.58389637  0.49996818  0.50015857     0.77500
C1398       C  0.97795790  0.49989787  0.49968670     0.77400
O1399       O  0.57019862  0.49815914  0.77478635    -0.71700
O1400       O  0.99102430  0.49988885  0.77500764    -0.71900
O1401       O  0.52966934  0.45944401  0.77510565    -0.71800
O1402       O  0.53153750  0.03862663  0.77466865    -0.71800
O1403       O  0.52986705  0.03848918  0.72474932    -0.71700
O1404       O  0.53126425  0.45927653  0.72517696    -0.71700
O1405       O  0.99094732  0.49812058  0.72509067    -0.71700
O1406       O  0.57015649  0.49961470  0.72485149    -0.71900
V1407       V  0.53061087  0.49902655  0.77392447     1.35200
V1408       V  0.53055421  0.49887796  0.72592508     1.35200
C1409       C  0.58355271  0.49883205  0.74979233     0.77600
C1410       C  0.97760965  0.49906238  0.75008783     0.77600
C1411       C  0.53048386  0.44598771  0.75022207     0.77500
C1412       C  0.53071427  0.05194275  0.74964505     0.77400
O1413       O  0.50775219  0.17570532  0.99934777    -0.71700
O1414       O  0.50821740  0.09652097  0.50038614    -0.71900
O1415       O  0.50829910  0.13655193  0.54341156    -0.71800
O1416       O  0.50776473  0.13565315  0.95624862    -0.71800
O1417       O  0.55300991  0.13693482  0.95588626    -0.71700
O1418       O  0.55355131  0.13619855  0.54302128    -0.71700
O1419       O  0.55357013  0.09690408  0.99903231    -0.71700
O1420       O  0.55299626  0.17613399  0.49984628    -0.71900
V1421       V  0.50888645  0.13611810  0.49983009     1.35200
V1422       V  0.55240656  0.13652508  0.49945357     1.35200
C1423       C  0.53027130  0.18949237  0.49967488     0.77600
C1424       C  0.53096544  0.08332607  0.49970916     0.77600
C1425       C  0.53102826  0.13647268  0.55814701     0.77500
C1426       C  0.53030123  0.13623577  0.94114322     0.77400
O1427       O  0.50840643  0.17498922  0.75019654    -0.71700
O1428       O  0.50810222  0.09574212  0.74942970    -0.71900
O1429       O  0.50841776  0.13498916  0.79338110    -0.71800
O1430       O  0.50805572  0.13579173  0.70626367    -0.71800
O1431       O  0.55330720  0.13540973  0.70595357    -0.71700
O1432       O  0.55367902  0.13545828  0.79314093    -0.71700
O1433       O  0.55346998  0.09575361  0.74966614    -0.71700
O1434       O  0.55365173  0.17493733  0.74952782    -0.71900
V1435       V  0.50912317  0.13536641  0.74981082     1.35200
V1436       V  0.55264726  0.13536345  0.74956258     1.35200
C1437       C  0.53109689  0.18853390  0.74999727     0.77600
C1438       C  0.53075978  0.08235886  0.74953483     0.77600
C1439       C  0.53110270  0.13533124  0.80818176     0.77500
C1440       C  0.53059604  0.13577204  0.69117751     0.77400
C1441       C  0.55530316  0.14040561  0.89099428    -0.21200
C1442       C  0.53025597  0.13609331  0.90712970    -0.09300
C1443       C  0.50552220  0.13161305  0.89039955     0.29600
C1444       C  0.50602635  0.13141843  0.85831539    -0.21200
C1445       C  0.53109185  0.13563348  0.84218759    -0.09300
C1446       C  0.55579946  0.14024924  0.85891356     0.29600
F1447       F  0.58043807  0.14496399  0.84440065    -0.19800
H1448       H  0.57462983  0.14406940  0.90322394     0.18000
H1449       H  0.98669864  0.12778379  0.84607690     0.18000
F1450       F  0.98084382  0.12710440  0.90490623    -0.19800
C1451       C  0.50577865  0.13547332  0.60834888    -0.21200
C1452       C  0.53113345  0.13663618  0.59217500    -0.09300
C1453       C  0.55625009  0.13789610  0.60888994     0.29600
C1454       C  0.55584020  0.13760850  0.64097749    -0.21200
C1455       C  0.53049430  0.13621049  0.65714899    -0.09300
C1456       C  0.50536124  0.13530495  0.64043046     0.29600
F1457       F  0.98030783  0.13413203  0.65492897    -0.19800
H1458       H  0.98611531  0.13459136  0.59615253     0.18000
H1459       H  0.57549797  0.13852651  0.65318095     0.18000
F1460       F  0.58127298  0.13950346  0.59437762    -0.19800
C1461       C  0.89429809  0.02549552  0.85818139    -0.21200
C1462       C  0.89351540  0.49999827  0.84227294    -0.09300
C1463       C  0.89272893  0.47500118  0.85926167     0.29600
C1464       C  0.89290723  0.47564513  0.89131745    -0.21200
C1465       C  0.89383344  0.50110489  0.90724814    -0.09300
C1466       C  0.89445318  0.02613770  0.89028790     0.29600
F1467       F  0.89532141  0.05127311  0.90456886    -0.19800
H1468       H  0.89489663  0.04507635  0.84575979     0.18000
H1469       H  0.89232930  0.45603835  0.90369034     0.18000
F1470       F  0.89178179  0.44984031  0.84504841    -0.19800
C1471       C  0.89734936  0.02435824  0.60849661    -0.21200
C1472       C  0.89542175  0.49913311  0.59227727    -0.09300
C1473       C  0.89377589  0.47394943  0.60892436     0.29600
C1474       C  0.89376126  0.47424296  0.64102784    -0.21200
C1475       C  0.89541832  0.49952479  0.65722533    -0.09300
C1476       C  0.89739987  0.02464944  0.64054792     0.29600
F1477       F  0.89942614  0.04960397  0.65506585    -0.19800
H1478       H  0.89881578  0.04404295  0.59635542     0.18000
H1479       H  0.89230150  0.45458148  0.65321565     0.18000
F1480       F  0.89199257  0.44900404  0.59433729    -0.19800
C1481       C  0.50582870  0.23406648  0.74878181    -0.21200
C1482       C  0.53116274  0.21946271  0.75032762    -0.09300
C1483       C  0.55624403  0.23475314  0.75222588     0.31400
C1484       C  0.55580160  0.26391163  0.75248636    -0.21200
C1485       C  0.53046678  0.27852010  0.75086784    -0.09300
C1486       C  0.50538498  0.26321611  0.74901622     0.29600
F1487       F  0.98034891  0.27628359  0.74729112    -0.19800
H1488       H  0.98620062  0.22290965  0.74727994     0.18000
H1489       H  0.57542806  0.27507155  0.75397328     0.18000
F1490       F  0.58126545  0.22165785  0.75397292    -0.19800
C1491       C  0.50545933  0.26475033  0.49959855    -0.21200
C1492       C  0.53082182  0.27948086  0.00071058    -0.09300
C1493       C  0.55594453  0.26430759  0.00154967     0.29600
C1494       C  0.55551960  0.23515711  0.00116241    -0.21200
C1495       C  0.53016182  0.22042472  0.49997121    -0.09300
C1496       C  0.50503513  0.23559210  0.49923191     0.29600
F1497       F  0.97998010  0.22238336  0.49810215    -0.19800
H1498       H  0.98579794  0.27581371  0.49892370     0.18000
H1499       H  0.57518577  0.22410213  0.00184643     0.18000
F1500       F  0.58100227  0.27750121  0.00283785    -0.19800
C1501       C  0.55507754  0.37186380  0.89189272    -0.21200
C1502       C  0.53128719  0.36311261  0.90815986    -0.09300
C1503       C  0.50762185  0.35435684  0.89160765     0.29600
C1504       C  0.50782235  0.35452135  0.85954391    -0.21200
C1505       C  0.53156525  0.36326116  0.84324501    -0.09300
C1506       C  0.55526424  0.37205426  0.85975830     0.29600
F1507       F  0.57840788  0.38141115  0.84495755    -0.19800
H1508       H  0.57347621  0.37892528  0.90406637     0.18000
H1509       H  0.98938544  0.34747025  0.84743244     0.18000
F1510       F  0.98440338  0.34508737  0.90632208    -0.19800
C1511       C  0.55477696  0.36238510  0.60938132    -0.21200
C1512       C  0.52949009  0.36379054  0.59320472    -0.09300
C1513       C  0.50433833  0.36508573  0.60993408     0.29600
C1514       C  0.50469292  0.36466712  0.64206190    -0.21200
C1515       C  0.53001896  0.36306718  0.65820475    -0.09300
C1516       C  0.55514286  0.36206459  0.64143422     0.29600
F1517       F  0.58019256  0.36075296  0.65586091    -0.19800
H1518       H  0.57446090  0.36146692  0.59720386     0.18000
H1519       H  0.48504788  0.36563603  0.65431009     0.18000
F1520       F  0.47935963  0.36680959  0.59540271    -0.19800
C1521       C  0.79550033  0.47438736  0.75051080    -0.21200
C1522       C  0.81011601  0.49980853  0.74901445    -0.09300
C1523       C  0.79481614  0.02482864  0.74758519     0.29600
C1524       C  0.76565008  0.02424800  0.74786749    -0.21200
C1525       C  0.75104878  0.49882395  0.74948981    -0.09300
C1526       C  0.76634888  0.47380317  0.75074139     0.29600
F1527       F  0.75327561  0.44869613  0.75236099    -0.19800
H1528       H  0.80664961  0.45479126  0.75162388     0.18000
H1529       H  0.75448399  0.04383447  0.74675274     0.18000
F1530       F  0.80790981  0.04991975  0.74586460    -0.19800
C1531       C  0.79574712  0.47561600  0.49961768    -0.21200
C1532       C  0.81048269  0.50097409  0.50041550    -0.09300
C1533       C  0.79530243  0.02610434  0.00119354     0.29600
C1534       C  0.76612577  0.02567003  0.00095649    -0.21200
C1535       C  0.75141008  0.50029019  0.50003567    -0.09300
C1536       C  0.76660243  0.47517810  0.49945489     0.29600
F1537       F  0.75342787  0.45009838  0.49862102    -0.19800
H1538       H  0.80679721  0.45594561  0.49905089     0.18000
H1539       H  0.75504539  0.04532287  0.00153828     0.18000
F1540       F  0.80852200  0.05116004  0.00218234    -0.19800
C1541       C  0.66349354  0.02381661  0.85827615    -0.21200
C1542       C  0.66651905  0.99851609  0.84238062    -0.09300
C1543       C  0.66933182  0.47365444  0.85937012     0.29600
C1544       C  0.66935608  0.47432270  0.89146659    -0.21200
C1545       C  0.66655521  0.99967128  0.90734964    -0.09300
C1546       C  0.66343897  0.02447541  0.89034658     0.29600
F1547       F  0.66015721  0.04942816  0.90456525    -0.19800
H1548       H  0.66108391  0.04325224  0.84586471     0.18000
H1549       H  0.67173118  0.45489441  0.90390039     0.18000
F1550       F  0.67230988  0.44867366  0.84512074    -0.19800
C1551       C  0.66534176  0.47495607  0.60834208    -0.21200
C1552       C  0.66723675  0.00038720  0.59239154    -0.09300
C1553       C  0.66891166  0.02535637  0.60930647     0.29600
C1554       C  0.66877438  0.02468398  0.64139355    -0.21200
C1555       C  0.66695152  0.99922565  0.65733140    -0.09300
C1556       C  0.66515892  0.47428580  0.64039899     0.29600
F1557       F  0.66309974  0.44917376  0.65466656    -0.19800
H1558       H  0.66391476  0.45541446  0.59598575     0.18000
H1559       H  0.67016916  0.04421334  0.65377746     0.18000
F1560       F  0.67078595  0.05046624  0.59499753    -0.19800
O1561       O  0.70693701  0.52288866  0.49927746    -0.71700
O1562       O  0.62767987  0.52278149  0.00033865    -0.71900
O1563       O  0.66773665  0.52302206  0.04333359    -0.71800
O1564       O  0.66677611  0.52260928  0.45616893    -0.71800
O1565       O  0.66742135  0.97736317  0.45645377    -0.71700
O1566       O  0.66702116  0.97777150  0.04358026    -0.71700
O1567       O  0.62765665  0.97741651  0.49983807    -0.71700
O1568       O  0.70682645  0.97765354  0.00024552    -0.71900
V1569       V  0.66729255  0.52195524  0.99976424     1.35200
V1570       V  0.66724574  0.97843584  0.00002513     1.35200
C1571       C  0.72045696  0.00026397  0.99981484     0.77600
C1572       C  0.61429171  0.50006287  0.00016971     0.77600
C1573       C  0.66736650  0.50045067  0.05838096     0.77500
C1574       C  0.66693007  0.49992453  0.44137976     0.77400
O1575       O  0.70659887  0.52135517  0.25020012    -0.71700
O1576       O  0.62739772  0.52144325  0.24951724    -0.71900
O1577       O  0.66658666  0.52115896  0.29347446    -0.71800
O1578       O  0.66733719  0.52156733  0.20633595    -0.71800
O1579       O  0.66661418  0.97631814  0.20620598    -0.71700
O1580       O  0.66706215  0.97590838  0.29336440    -0.71700
O1581       O  0.62723984  0.97607634  0.25005846    -0.71700
O1582       O  0.70645777  0.97611612  0.24947592    -0.71900
V1583       V  0.66698528  0.52050100  0.24989755     1.35200
V1584       V  0.66685162  0.97698019  0.24977631     1.35200
C1585       C  0.72010141  0.99872657  0.24976052     0.77600
C1586       C  0.61394351  0.49877438  0.24976154     0.77600
C1587       C  0.66674534  0.49847511  0.30835080     0.77500
C1588       C  0.66696399  0.49899703  0.19134540     0.77400
O1589       O  0.55331372  0.82413396  0.50037524    -0.71700
O1590       O  0.55320216  0.90326641  0.00152460    -0.71900
O1591       O  0.55259962  0.86315991  0.04452731    -0.71800
O1592       O  0.55368558  0.86433031  0.45724924    -0.71800
O1593       O  0.50843865  0.86261264  0.45685996    -0.71700
O1594       O  0.50736497  0.86426152  0.04391608    -0.71700
O1595       O  0.50787392  0.90310258  0.49938203    -0.71700
O1596       O  0.50807156  0.82384840  0.00124200    -0.71900
V1597       V  0.55233097  0.86370858  0.50091222     1.35200
V1598       V  0.50881411  0.86347452  0.50036566     1.35200
C1599       C  0.53075753  0.81041629  0.50081999     0.77600
C1600       C  0.53054341  0.91656419  0.50038247     0.77600
C1601       C  0.52978367  0.86376740  0.05915986     0.77500
C1602       C  0.53116302  0.86334754  0.44214455     0.77400
O1603       O  0.55315553  0.82306719  0.25161858    -0.71700
O1604       O  0.55320634  0.90230116  0.24927216    -0.71900
O1605       O  0.55371506  0.86381469  0.29404092    -0.71800
O1606       O  0.55276709  0.86177288  0.20700272    -0.71800
O1607       O  0.50754937  0.86333941  0.20738635    -0.71700
O1608       O  0.50847564  0.86186120  0.29466859    -0.71700
O1609       O  0.50788949  0.90215842  0.25179665    -0.71700
O1610       O  0.50792487  0.82302041  0.25032484    -0.71900
V1611       V  0.55233588  0.86270860  0.25050144     1.35200
V1612       V  0.50882306  0.86258795  0.25104248     1.35200
C1613       C  0.53049996  0.80946415  0.25097029     0.77600
C1614       C  0.53052917  0.91560551  0.25042422     0.77600
C1615       C  0.53126859  0.86301638  0.30926344     0.77500
C1616       C  0.53009135  0.86267034  0.19225270     0.77400
O1617       O  0.85474660  0.97808555  0.49968028    -0.71700
O1618       O  0.93398385  0.97740180  0.99938919    -0.71900
O1619       O  0.89450333  0.97710096  0.04302989    -0.71800
O1620       O  0.89421109  0.97828108  0.45597796    -0.71800
O1621       O  0.89437668  0.52353080  0.45645253    -0.71700
O1622       O  0.89531411  0.52234514  0.04367145    -0.71700
O1623       O  0.93439995  0.52276901  0.49960105    -0.71700
O1624       O  0.85523856  0.52331866  0.00062682    -0.71900
V1625       V  0.89436960  0.97859993  0.99951081     1.35200
V1626       V  0.89482067  0.52211641  0.00007568     1.35200
C1627       C  0.84141469  0.00082603  0.00026809     0.77600
C1628       C  0.94756478  0.00000931  0.99952194     0.77600
C1629       C  0.89506539  0.99950234  0.05827179     0.77500
C1630       C  0.89415193  0.00104958  0.44128284     0.77400
O1631       O  0.85446309  0.97715748  0.24962618    -0.71700
O1632       O  0.93364313  0.97664468  0.24992626    -0.71900
O1633       O  0.89384126  0.97710491  0.29340681    -0.71800
O1634       O  0.89428040  0.97684815  0.20618947    -0.71800
O1635       O  0.89511825  0.52209354  0.20613539    -0.71700
O1636       O  0.89377892  0.52235487  0.29320039    -0.71700
O1637       O  0.93402649  0.52200982  0.25031207    -0.71700
O1638       O  0.85479758  0.52239796  0.24895046    -0.71900
V1639       V  0.89405761  0.97781190  0.24980087     1.35200
V1640       V  0.89441498  0.52133114  0.24964995     1.35200
C1641       C  0.84105140  0.99983983  0.24915865     0.77600
C1642       C  0.94721068  0.99924513  0.25015400     0.77600
C1643       C  0.89368006  0.99977406  0.30823785     0.77500
C1644       C  0.89493546  0.99948680  0.19123830     0.77400
O1645       O  0.53005592  0.53957456  0.02478038    -0.71700
O1646       O  0.53153869  0.96039487  0.02512272    -0.71900
O1647       O  0.57042955  0.00085786  0.02508274    -0.71800
O1648       O  0.99120275  0.99912166  0.02472857    -0.71800
O1649       O  0.99144590  0.00073603  0.47479918    -0.71700
O1650       O  0.57059350  0.99899149  0.47517075    -0.71700
O1651       O  0.52996748  0.96027270  0.47519699    -0.71700
O1652       O  0.53203975  0.53949064  0.47487097    -0.71900
V1653       V  0.53081344  0.99998206  0.02397129     1.35200
V1654       V  0.53101437  0.99987551  0.47597428     1.35200
C1655       C  0.53108151  0.55291614  0.49978305     0.77600
C1656       C  0.53063053  0.94695715  0.50022756     0.77600
C1657       C  0.58388919  0.99996794  0.00015900     0.77500
C1658       C  0.97795072  0.99989774  0.99968743     0.77400
O1659       O  0.57019239  0.99815920  0.27478615    -0.71700
O1660       O  0.99101805  0.99988814  0.27500796    -0.71900
O1661       O  0.52966356  0.95944370  0.27510555    -0.71800
O1662       O  0.53154398  0.53862695  0.27466840    -0.71800
O1663       O  0.52987266  0.53848925  0.22474910    -0.71700
O1664       O  0.53125695  0.95927637  0.22517679    -0.71700
O1665       O  0.99094081  0.99812126  0.22509092    -0.71700
O1666       O  0.57015002  0.99961372  0.22485127    -0.71900
V1667       V  0.53060463  0.99902623  0.27392452     1.35200
V1668       V  0.53054771  0.99887783  0.22592512     1.35200
C1669       C  0.58354636  0.99883153  0.24979205     0.77600
C1670       C  0.97760328  0.99906240  0.25008821     0.77600
C1671       C  0.53047739  0.94598748  0.25022190     0.77500
C1672       C  0.53072010  0.55194294  0.24964473     0.77400
O1673       O  0.50775531  0.67570451  0.49934729    -0.71700
O1674       O  0.50822305  0.59652030  0.00038569    -0.71900
O1675       O  0.50830379  0.63655125  0.04341098    -0.71800
O1676       O  0.50776871  0.63565239  0.45624822    -0.71800
O1677       O  0.55301384  0.63693558  0.45588536    -0.71700
O1678       O  0.55355602  0.63619925  0.04302048    -0.71700
O1679       O  0.55357579  0.59690480  0.49903129    -0.71700
O1680       O  0.55299941  0.67613468  0.99984539    -0.71900
V1681       V  0.50889084  0.63611740  0.99982959     1.35200
V1682       V  0.55241094  0.63652574  0.99945267     1.35200
C1683       C  0.53027400  0.68949230  0.99967422     0.77600
C1684       C  0.53097149  0.58332611  0.99970842     0.77600
C1685       C  0.53103300  0.63647276  0.05814632     0.77500
C1686       C  0.53030504  0.63623581  0.44114258     0.77400
O1687       O  0.50840794  0.67498848  0.25019576    -0.71700
O1688       O  0.50810666  0.59574148  0.24942885    -0.71900
O1689       O  0.50842049  0.63498846  0.29338035    -0.71800
O1690       O  0.50805914  0.63579109  0.20626277    -0.71800
O1691       O  0.55331064  0.63541071  0.20595316    -0.71700
O1692       O  0.55368174  0.63545917  0.29314037    -0.71700
O1693       O  0.55347443  0.59575454  0.24966572    -0.71700
O1694       O  0.55365327  0.67493823  0.24952744    -0.71900
V1695       V  0.50912618  0.63536575  0.24980999     1.35200
V1696       V  0.55265029  0.63536435  0.24956213     1.35200
C1697       C  0.53109792  0.68853396  0.24999675     0.77600
C1698       C  0.53076469  0.58235901  0.24953430     0.77600
C1699       C  0.53110539  0.63533135  0.30818112     0.77500
C1700       C  0.53059962  0.63577228  0.19117686     0.77400
C1701       C  0.55530657  0.64040473  0.39099338    -0.21200
C1702       C  0.53025942  0.63609343  0.40712909    -0.09300
C1703       C  0.50552530  0.63161426  0.39039919     0.29600
C1704       C  0.50602908  0.63141966  0.35831495    -0.21200
C1705       C  0.53109469  0.63563368  0.34218697    -0.09300
C1706       C  0.55580262  0.64024840  0.35891271     0.29600
F1707       F  0.58044133  0.64496200  0.34439960    -0.19800
H1708       H  0.57463358  0.64406766  0.40322285     0.18000
H1709       H  0.98670111  0.62778589  0.34607666     0.18000
F1710       F  0.98084677  0.62710676  0.40490607    -0.19800
C1711       C  0.50578313  0.63547291  0.10834794    -0.21200
C1712       C  0.53113809  0.63663644  0.09217432    -0.09300
C1713       C  0.55625452  0.63789726  0.10888952     0.29600
C1714       C  0.55584431  0.63760967  0.14097711    -0.21200
C1715       C  0.53049828  0.63621086  0.15714833    -0.09300
C1716       C  0.50536543  0.63530462  0.14042952     0.29600
F1717       F  0.98031187  0.63413105  0.15492769    -0.19800
H1718       H  0.98611994  0.63459034  0.09615142     0.18000
H1719       H  0.57550192  0.63852832  0.15318079     0.18000
F1720       F  0.58127746  0.63950554  0.09437744    -0.19800
C1721       C  0.89430531  0.52549539  0.35818082    -0.21200
C1722       C  0.89350855  0.99999840  0.34227345    -0.09300
C1723       C  0.89272221  0.97500129  0.35926220     0.29600
C1724       C  0.89290036  0.97564523  0.39131798    -0.21200
C1725       C  0.89382625  0.00110500  0.40724867    -0.09300
C1726       C  0.89446056  0.52613756  0.39028733     0.29600
F1727       F  0.89532920  0.55127298  0.40456826    -0.19800
H1728       H  0.89490400  0.54507622  0.34575921     0.18000
H1729       H  0.89232258  0.95603844  0.40369088     0.18000
F1730       F  0.89177533  0.94984040  0.34504894    -0.19800
C1731       C  0.89735511  0.52435824  0.10849603    -0.21200
C1732       C  0.89541510  0.99913317  0.09227780    -0.09300
C1733       C  0.89376875  0.97394953  0.10892488     0.29600
C1734       C  0.89375442  0.97424302  0.14102838    -0.21200
C1735       C  0.89541230  0.99952484  0.15722584    -0.09300
C1736       C  0.89740525  0.52464946  0.14054738     0.29600
F1737       F  0.89943048  0.54960409  0.15506527    -0.19800
H1738       H  0.89882098  0.54404289  0.09635491     0.18000
H1739       H  0.89229416  0.95458167  0.15321614     0.18000
F1740       F  0.89198457  0.94900419  0.09433784    -0.19800
C1741       C  0.50582811  0.73406561  0.24878138    -0.21200
C1742       C  0.53116263  0.71946272  0.25032728    -0.09300
C1743       C  0.55624339  0.73475397  0.25222584     0.31400
C1744       C  0.55579996  0.76391240  0.25248649    -0.21200
C1745       C  0.53046467  0.77852000  0.25086785    -0.09300
C1746       C  0.50538337  0.76321520  0.24901595     0.29600
F1747       F  0.98034686  0.77628189  0.24729072    -0.19800
H1748       H  0.98620042  0.72290814  0.24727913     0.18000
H1749       H  0.57542608  0.77507297  0.25397364     0.18000
F1750       F  0.58126526  0.72165952  0.25397302    -0.19800
C1751       C  0.50545927  0.76474927  0.99959869    -0.21200
C1752       C  0.53082125  0.77948070  0.50071031    -0.09300
C1753       C  0.55594455  0.76430836  0.50154892     0.29600
C1754       C  0.55552071  0.73515785  0.50116157    -0.21200
C1755       C  0.53016340  0.72042464  0.99997069    -0.09300
C1756       C  0.50503614  0.73559105  0.99923190     0.29600
F1757       F  0.97998166  0.72238143  0.99810257    -0.19800
H1758       H  0.98579755  0.77581191  0.99892429     0.18000
H1759       H  0.57518722  0.72410361  0.50184522     0.18000
F1760       F  0.58100184  0.77750289  0.50283664    -0.19800
C1761       C  0.55507297  0.87186570  0.39189260    -0.21200
C1762       C  0.53128350  0.86311229  0.40815986    -0.09300
C1763       C  0.50761890  0.85435426  0.39160780     0.29600
C1764       C  0.50781920  0.85451888  0.35954408    -0.21200
C1765       C  0.53156113  0.86326096  0.34324502    -0.09300
C1766       C  0.55525944  0.87205620  0.35975815     0.29600
F1767       F  0.57840208  0.88141534  0.34495722    -0.19800
H1768       H  0.57347101  0.87892894  0.40406615     0.18000
H1769       H  0.98938291  0.84746604  0.34743269     0.18000
F1770       F  0.98440149  0.84508248  0.40632243    -0.19800
C1771       C  0.55477266  0.86238881  0.10938146    -0.21200
C1772       C  0.52948565  0.86379044  0.09320474    -0.09300
C1773       C  0.50433362  0.86508216  0.10993397     0.29600
C1774       C  0.50468814  0.86466363  0.14206181    -0.21200
C1775       C  0.53001435  0.86306728  0.15820477    -0.09300
C1776       C  0.55513847  0.86206850  0.14143435     0.29600
F1777       F  0.58018834  0.86076106  0.15586116    -0.19800
H1778       H  0.57445680  0.86147361  0.09720412     0.18000
H1779       H  0.48504291  0.86562966  0.15430990     0.18000
F1780       F  0.47935472  0.86680236  0.09540247    -0.19800
C1781       C  0.79549402  0.97438743  0.25051413    -0.21200
C1782       C  0.81010965  0.99980847  0.24901425    -0.09300
C1783       C  0.79482257  0.52482892  0.24758892     0.29600
C1784       C  0.76565652  0.52424833  0.24787119    -0.21200
C1785       C  0.75104241  0.99882378  0.24948961    -0.09300
C1786       C  0.76634257  0.97380319  0.25074475     0.29600
F1787       F  0.75326935  0.94869632  0.25236816    -0.19800
H1788       H  0.80664336  0.95479148  0.25163015     0.18000
H1789       H  0.75449049  0.54383497  0.24675934     0.18000
F1790       F  0.80791631  0.54992021  0.24587219    -0.19800
C1791       C  0.79573996  0.97561624  0.99961806    -0.21200
C1792       C  0.81047549  0.00097435  0.00041600    -0.09300
C1793       C  0.79530968  0.52610411  0.50119303     0.29600
C1794       C  0.76613302  0.52566984  0.50095622    -0.21200
C1795       C  0.75140289  0.00029035  0.00003569    -0.09300
C1796       C  0.76659528  0.97517829  0.99945504     0.29600
F1797       F  0.75342077  0.95009855  0.99862114    -0.19800
H1798       H  0.80679007  0.95594587  0.99905131     0.18000
H1799       H  0.75505268  0.54532272  0.50153803     0.18000
F1800       F  0.80852929  0.55115979  0.50218159    -0.19800
C1801       C  0.66350113  0.52381650  0.35827643    -0.21200
C1802       C  0.66652593  0.49851597  0.34238084    -0.09300
C1803       C  0.66932534  0.97365474  0.35936995     0.29600
C1804       C  0.66934934  0.97432302  0.39146646    -0.21200
C1805       C  0.66656258  0.49967104  0.40734981    -0.09300
C1806       C  0.66344679  0.52447528  0.39034680     0.29600
F1807       F  0.66016570  0.54942811  0.40456551    -0.19800
H1808       H  0.66109186  0.54325228  0.34586502     0.18000
H1809       H  0.67172478  0.95489493  0.40390020     0.18000
F1810       F  0.67230415  0.94867401  0.34512071    -0.19800
C1811       C  0.66533385  0.97495542  0.10834183    -0.21200
C1812       C  0.66724356  0.50038791  0.09239175    -0.09300
C1813       C  0.66891720  0.52535721  0.10930663     0.29600
C1814       C  0.66877976  0.52468487  0.14139375    -0.21200
C1815       C  0.66695798  0.49922649  0.15733164    -0.09300
C1816       C  0.66515116  0.97428502  0.14039872     0.29600
F1817       F  0.66309073  0.94917309  0.15466631    -0.19800
H1818       H  0.66390580  0.95541384  0.09598538     0.18000
H1819       H  0.67017352  0.54421431  0.15377764     0.18000
F1820       F  0.67079028  0.55046712  0.09499762    -0.19800
O1821       O  0.70693701  0.52288869  0.99927744    -0.71700
O1822       O  0.62767988  0.52278148  0.50033863    -0.71900
O1823       O  0.66773664  0.52302205  0.54333359    -0.71800
O1824       O  0.66677609  0.52260928  0.95616892    -0.71800
O1825       O  0.66742131  0.97736311  0.95645380    -0.71700
O1826       O  0.66702105  0.97777150  0.54358021    -0.71700
O1827       O  0.62765666  0.97741647  0.99983819    -0.71700
O1828       O  0.70682643  0.97765354  0.50024556    -0.71900
V1829       V  0.66729255  0.52195522  0.49976424     1.35200
V1830       V  0.66724572  0.97843586  0.50002509     1.35200
C1831       C  0.72045696  0.00026396  0.49981489     0.77600
C1832       C  0.61429172  0.50006286  0.50016973     0.77600
C1833       C  0.66736653  0.50045067  0.55838097     0.77500
C1834       C  0.66693010  0.49992452  0.94137977     0.77400
O1835       O  0.70659886  0.52135517  0.75020017    -0.71700
O1836       O  0.62739771  0.52144325  0.74951727    -0.71900
O1837       O  0.66658662  0.52115892  0.79347450    -0.71800
O1838       O  0.66733719  0.52156736  0.70633598    -0.71800
O1839       O  0.66661417  0.97631814  0.70620595    -0.71700
O1840       O  0.66706218  0.97590839  0.79336439    -0.71700
O1841       O  0.62723986  0.97607632  0.75005842    -0.71700
O1842       O  0.70645779  0.97611610  0.74947589    -0.71900
V1843       V  0.66698526  0.52050100  0.74989759     1.35200
V1844       V  0.66685164  0.97698019  0.74977628     1.35200
C1845       C  0.72010142  0.99872656  0.74976053     0.77600
C1846       C  0.61394350  0.49877438  0.74976155     0.77600
C1847       C  0.66674530  0.49847505  0.80835083     0.77500
C1848       C  0.66696401  0.49899708  0.69134543     0.77400
O1849       O  0.55331370  0.82413398  0.00037531    -0.71700
O1850       O  0.55320216  0.90326639  0.50152462    -0.71900
O1851       O  0.55259964  0.86315987  0.54452729    -0.71800
O1852       O  0.55368557  0.86433030  0.95724926    -0.71800
O1853       O  0.50843864  0.86261275  0.95685998    -0.71700
O1854       O  0.50736499  0.86426157  0.54391606    -0.71700
O1855       O  0.50787391  0.90310261  0.99938211    -0.71700
O1856       O  0.50807159  0.82384838  0.50124208    -0.71900
V1857       V  0.55233096  0.86370860  0.00091224     1.35200
V1858       V  0.50881409  0.86347455  0.00036567     1.35200
C1859       C  0.53075751  0.81041631  0.00081999     0.77600
C1860       C  0.53054340  0.91656421  0.00038249     0.77600
C1861       C  0.52978370  0.86376742  0.55915984     0.77500
C1862       C  0.53116302  0.86334758  0.94214457     0.77400
O1863       O  0.55315549  0.82306719  0.75161864    -0.71700
O1864       O  0.55320635  0.90230114  0.74927211    -0.71900
O1865       O  0.55371504  0.86381473  0.79404093    -0.71800
O1866       O  0.55276709  0.86177284  0.70700274    -0.71800
O1867       O  0.50754937  0.86333950  0.70738635    -0.71700
O1868       O  0.50847562  0.86186111  0.79466862    -0.71700
O1869       O  0.50788950  0.90215841  0.75179676    -0.71700
O1870       O  0.50792482  0.82302042  0.75032476    -0.71900
V1871       V  0.55233587  0.86270859  0.75050145     1.35200
V1872       V  0.50882304  0.86258795  0.75104250     1.35200
C1873       C  0.53049991  0.80946416  0.75097028     0.77600
C1874       C  0.53052918  0.91560549  0.75042424     0.77600
C1875       C  0.53126858  0.86301636  0.80926346     0.77500
C1876       C  0.53009135  0.86267037  0.69225270     0.77400
O1877       O  0.85474661  0.97808556  0.99968024    -0.71700
O1878       O  0.93398384  0.97740183  0.49938917    -0.71900
O1879       O  0.89450335  0.97710099  0.54302987    -0.71800
O1880       O  0.89421112  0.97828108  0.95597797    -0.71800
O1881       O  0.89437666  0.52353079  0.95645252    -0.71700
O1882       O  0.89531409  0.52234518  0.54367148    -0.71700
O1883       O  0.93439994  0.52276896  0.99960101    -0.71700
O1884       O  0.85523856  0.52331866  0.50062682    -0.71900
V1885       V  0.89436959  0.97859994  0.49951080     1.35200
V1886       V  0.89482068  0.52211644  0.50007570     1.35200
C1887       C  0.84141468  0.00082601  0.50026813     0.77600
C1888       C  0.94756477  0.00000934  0.49952195     0.77600
C1889       C  0.89506538  0.99950237  0.55827176     0.77500
C1890       C  0.89415198  0.00104957  0.94128286     0.77400
O1891       O  0.85446310  0.97715748  0.74962630    -0.71700
O1892       O  0.93364313  0.97664466  0.74992616    -0.71900
O1893       O  0.89384136  0.97710492  0.79340682    -0.71800
O1894       O  0.89428032  0.97684814  0.70618948    -0.71800
O1895       O  0.89511822  0.52209354  0.70613542    -0.71700
O1896       O  0.89377886  0.52235489  0.79320041    -0.71700
O1897       O  0.93402646  0.52200984  0.75031210    -0.71700
O1898       O  0.85479755  0.52239797  0.74895046    -0.71900
V1899       V  0.89405762  0.97781190  0.74980088     1.35200
V1900       V  0.89441494  0.52133114  0.74964997     1.35200
C1901       C  0.84105141  0.99983983  0.74915875     0.77600
C1902       C  0.94721069  0.99924510  0.75015394     0.77600
C1903       C  0.89368011  0.99977407  0.80823787     0.77500
C1904       C  0.89493544  0.99948678  0.69123829     0.77400
O1905       O  0.53005597  0.53957457  0.52478031    -0.71700
O1906       O  0.53153875  0.96039485  0.52512274    -0.71900
O1907       O  0.57042956  0.00085791  0.52508272    -0.71800
O1908       O  0.99120274  0.99912164  0.52472861    -0.71800
O1909       O  0.99144591  0.00073604  0.97479914    -0.71700
O1910       O  0.57059352  0.99899154  0.97517076    -0.71700
O1911       O  0.52996753  0.96027271  0.97519697    -0.71700
O1912       O  0.53203973  0.53949064  0.97487105    -0.71900
V1913       V  0.53081345  0.99998204  0.52397130     1.35200
V1914       V  0.53101438  0.99987553  0.97597426     1.35200
C1915       C  0.53108148  0.55291613  0.99978312     0.77600
C1916       C  0.53063052  0.94695717  0.00022755     0.77600
C1917       C  0.58388919  0.99996797  0.50015896     0.77500
C1918       C  0.97795070  0.99989775  0.49968746     0.77400
O1919       O  0.57019241  0.99815911  0.77478610    -0.71700
O1920       O  0.99101806  0.99988816  0.77500790    -0.71900
O1921       O  0.52966354  0.95944368  0.77510553    -0.71800
O1922       O  0.53154401  0.53862700  0.77466841    -0.71800
O1923       O  0.52987269  0.53848929  0.72474911    -0.71700
O1924       O  0.53125702  0.95927633  0.72517678    -0.71700
O1925       O  0.99094082  0.99812117  0.72509087    -0.71700
O1926       O  0.57015004  0.99961372  0.72485122    -0.71900
V1927       V  0.53060465  0.99902619  0.77392449     1.35200
V1928       V  0.53054773  0.99887779  0.72592508     1.35200
C1929       C  0.58354637  0.99883148  0.74979200     0.77600
C1930       C  0.97760329  0.99906237  0.75008815     0.77600
C1931       C  0.53047741  0.94598745  0.75022190     0.77500
C1932       C  0.53072014  0.55194298  0.74964474     0.77400
O1933       O  0.50775531  0.67570451  0.99934730    -0.71700
O1934       O  0.50822305  0.59652030  0.50038573    -0.71900
O1935       O  0.50830381  0.63655131  0.54341101    -0.71800
O1936       O  0.50776870  0.63565242  0.95624819    -0.71800
O1937       O  0.55301383  0.63693555  0.95588531    -0.71700
O1938       O  0.55355604  0.63619924  0.54302051    -0.71700
O1939       O  0.55357579  0.59690479  0.99903130    -0.71700
O1940       O  0.55299940  0.67613468  0.49984547    -0.71900
V1941       V  0.50889084  0.63611741  0.49982962     1.35200
V1942       V  0.55241094  0.63652575  0.49945271     1.35200
C1943       C  0.53027400  0.68949230  0.49967426     0.77600
C1944       C  0.53097149  0.58332612  0.49970839     0.77600
C1945       C  0.53103302  0.63647279  0.55814634     0.77500
C1946       C  0.53030502  0.63623582  0.94114253     0.77400
O1947       O  0.50840796  0.67498850  0.75019572    -0.71700
O1948       O  0.50810669  0.59574150  0.74942884    -0.71900
O1949       O  0.50842051  0.63498847  0.79338030    -0.71800
O1950       O  0.50805913  0.63579109  0.70626276    -0.71800
O1951       O  0.55331064  0.63541072  0.70595313    -0.71700
O1952       O  0.55368176  0.63545917  0.79314034    -0.71700
O1953       O  0.55347447  0.59575457  0.74966569    -0.71700
O1954       O  0.55365328  0.67493826  0.74952739    -0.71900
V1955       V  0.50912620  0.63536576  0.74980996     1.35200
V1956       V  0.55265031  0.63536437  0.74956209     1.35200
C1957       C  0.53109792  0.68853398  0.74999671     0.77600
C1958       C  0.53076472  0.58235904  0.74953429     0.77600
C1959       C  0.53110540  0.63533135  0.80818106     0.77500
C1960       C  0.53059960  0.63577228  0.69117684     0.77400
C1961       C  0.55530657  0.64040477  0.89099336    -0.21200
C1962       C  0.53025934  0.63609344  0.90712900    -0.09300
C1963       C  0.50552522  0.63161427  0.89039909     0.29600
C1964       C  0.50602910  0.63141963  0.85831491    -0.21200
C1965       C  0.53109464  0.63563364  0.84218688    -0.09300
C1966       C  0.55580256  0.64024841  0.85891263     0.29600
F1967       F  0.58044130  0.64496205  0.84439957    -0.19800
H1968       H  0.57463345  0.64406768  0.90322275     0.18000
H1969       H  0.98670103  0.62778586  0.84607661     0.18000
F1970       F  0.98084676  0.62710682  0.90490607    -0.19800
C1971       C  0.50578315  0.63547283  0.60834792    -0.21200
C1972       C  0.53113810  0.63663645  0.59217433    -0.09300
C1973       C  0.55625452  0.63789734  0.60888954     0.29600
C1974       C  0.55584431  0.63760974  0.64097714    -0.21200
C1975       C  0.53049824  0.63621085  0.65714832    -0.09300
C1976       C  0.50536541  0.63530453  0.64042950     0.29600
F1977       F  0.98031182  0.63413091  0.65492766    -0.19800
H1978       H  0.98611988  0.63459019  0.59615137     0.18000
H1979       H  0.57550187  0.63852844  0.65318081     0.18000
F1980       F  0.58127748  0.63950566  0.59437752    -0.19800
C1981       C  0.89430530  0.52549541  0.85818083    -0.21200
C1982       C  0.89350861  0.99999841  0.84227347    -0.09300
C1983       C  0.89272226  0.97500131  0.85926221     0.29600
C1984       C  0.89290040  0.97564522  0.89131802    -0.21200
C1985       C  0.89382630  0.00110503  0.90724870    -0.09300
C1986       C  0.89446057  0.52613755  0.89028734     0.29600
F1987       F  0.89532926  0.55127298  0.90456827    -0.19800
H1988       H  0.89490402  0.54507620  0.84575924     0.18000
H1989       H  0.89232262  0.95603850  0.90369087     0.18000
F1990       F  0.89177537  0.94984041  0.84504897    -0.19800
C1991       C  0.89735507  0.52435823  0.60849611    -0.21200
C1992       C  0.89541507  0.99913319  0.59227779    -0.09300
C1993       C  0.89376870  0.97394954  0.60892486     0.29600
C1994       C  0.89375438  0.97424303  0.64102834    -0.21200
C1995       C  0.89541227  0.99952482  0.65722583    -0.09300
C1996       C  0.89740523  0.52464946  0.64054741     0.29600
F1997       F  0.89943051  0.54960407  0.65506535    -0.19800
H1998       H  0.89882097  0.54404299  0.59635492     0.18000
H1999       H  0.89229409  0.95458163  0.65321613     0.18000
F2000       F  0.89198444  0.94900421  0.59433779    -0.19800
C2001       C  0.50582807  0.73406562  0.74878145    -0.21200
C2002       C  0.53116262  0.71946274  0.75032726    -0.09300
C2003       C  0.55624338  0.73475401  0.75222578     0.31400
C2004       C  0.55579992  0.76391244  0.75248642    -0.21200
C2005       C  0.53046462  0.77852002  0.75086784    -0.09300
C2006       C  0.50538333  0.76321522  0.74901603     0.29600
F2007       F  0.98034692  0.77628192  0.74729046    -0.19800
H2008       H  0.98620040  0.72290816  0.74727900     0.18000
H2009       H  0.57542604  0.77507302  0.75397352     0.18000
F2010       F  0.58126525  0.72165959  0.75397292    -0.19800
C2011       C  0.50545928  0.76474926  0.49959859    -0.21200
C2012       C  0.53082124  0.77948073  0.00071034    -0.09300
C2013       C  0.55594453  0.76430840  0.00154888     0.29600
C2014       C  0.55552073  0.73515786  0.00116150    -0.21200
C2015       C  0.53016341  0.72042462  0.49997070    -0.09300
C2016       C  0.50503615  0.73559104  0.49923186     0.29600
F2017       F  0.97998162  0.72238138  0.49810265    -0.19800
H2018       H  0.98579751  0.77581186  0.49892439     0.18000
H2019       H  0.57518718  0.72410365  0.00184509     0.18000
F2020       F  0.58100183  0.77750291  0.00283651    -0.19800
C2021       C  0.55507300  0.87186569  0.89189263    -0.21200
C2022       C  0.53128349  0.86311229  0.90815990    -0.09300
C2023       C  0.50761890  0.85435428  0.89160785     0.29600
C2024       C  0.50781916  0.85451885  0.85954409    -0.21200
C2025       C  0.53156114  0.86326096  0.84324504    -0.09300
C2026       C  0.55525942  0.87205622  0.85975815     0.29600
F2027       F  0.57840203  0.88141544  0.84495724    -0.19800
H2028       H  0.57347097  0.87892888  0.90406612     0.18000
H2029       H  0.98938295  0.84746600  0.84743274     0.18000
F2030       F  0.98440148  0.84508254  0.90632247    -0.19800
C2031       C  0.55477269  0.86238898  0.60938145    -0.21200
C2032       C  0.52948569  0.86379049  0.59320470    -0.09300
C2033       C  0.50433366  0.86508210  0.60993392     0.29600
C2034       C  0.50468812  0.86466356  0.64206182    -0.21200
C2035       C  0.53001440  0.86306733  0.65820475    -0.09300
C2036       C  0.55513852  0.86206867  0.64143434     0.29600
F2037       F  0.58018838  0.86076137  0.65586115    -0.19800
H2038       H  0.57445683  0.86147387  0.59720412     0.18000
H2039       H  0.48504301  0.86562946  0.65430983     0.18000
F2040       F  0.47935473  0.86680222  0.59540247    -0.19800
C2041       C  0.79549403  0.97438742  0.75051426    -0.21200
C2042       C  0.81010964  0.99980846  0.74901441    -0.09300
C2043       C  0.79482259  0.52482891  0.74758895     0.29600
C2044       C  0.76565649  0.52424838  0.74787118    -0.21200
C2045       C  0.75104242  0.99882379  0.74948970    -0.09300
C2046       C  0.76634259  0.97380317  0.75074483     0.29600
F2047       F  0.75326937  0.94869628  0.75236811    -0.19800
H2048       H  0.80664340  0.95479144  0.75163026     0.18000
H2049       H  0.75449054  0.54383488  0.74675940     0.18000
F2050       F  0.80791629  0.54992023  0.74587235    -0.19800
C2051       C  0.79573996  0.97561620  0.49961815    -0.21200
C2052       C  0.81047551  0.00097431  0.50041610    -0.09300
C2053       C  0.79530968  0.52610414  0.00119308     0.29600
C2054       C  0.76613301  0.52566988  0.00095625    -0.21200
C2055       C  0.75140289  0.00029030  0.50003576    -0.09300
C2056       C  0.76659528  0.97517826  0.49945512     0.29600
F2057       F  0.75342076  0.95009853  0.49862120    -0.19800
H2058       H  0.80679005  0.95594584  0.49905139     0.18000
H2059       H  0.75505270  0.54532272  0.00153808     0.18000
F2060       F  0.80852928  0.55115981  0.00218168    -0.19800
C2061       C  0.66350103  0.52381641  0.85827644    -0.21200
C2062       C  0.66652588  0.49851589  0.84238088    -0.09300
C2063       C  0.66932529  0.97365476  0.85936992     0.29600
C2064       C  0.66934928  0.97432297  0.89146646    -0.21200
C2065       C  0.66656260  0.49967097  0.90734983    -0.09300
C2066       C  0.66344674  0.52447520  0.89034681     0.29600
F2067       F  0.66016569  0.54942805  0.90456550    -0.19800
H2068       H  0.66109169  0.54325220  0.84586502     0.18000
H2069       H  0.67172466  0.95489492  0.90390016     0.18000
F2070       F  0.67230400  0.94867400  0.84512068    -0.19800
C2071       C  0.66533382  0.97495540  0.60834179    -0.21200
C2072       C  0.66724361  0.50038795  0.59239178    -0.09300
C2073       C  0.66891725  0.52535726  0.60930665     0.29600
C2074       C  0.66877980  0.52468490  0.64139375    -0.21200
C2075       C  0.66695802  0.49922655  0.65733167    -0.09300
C2076       C  0.66515114  0.97428500  0.64039868     0.29600
F2077       F  0.66309076  0.94917307  0.65466628    -0.19800
H2078       H  0.66390580  0.95541380  0.59598534     0.18000
H2079       H  0.67017357  0.54421438  0.65377765     0.18000
F2080       F  0.67079032  0.55046715  0.59499760    -0.19800
loop_ 
_geom_bond_atom_site_label_1 
_geom_bond_atom_site_label_2 
_geom_bond_distance 
_geom_bond_site_symmetry_2 
_ccdc_geom_bond_type 
O1          V269   1.901       .  S
O1          C791   1.265       .  A
O2            V9   1.900   1_554  S
O2           C12   1.263       .  A
O3            V9   1.898   1_554  S
O3           C13   1.264       .  A
O4          V269   1.899       .  S
O4           C14   1.265   1_545  A
O5          V270   1.898       .  S
O5          C534   1.265       .  A
O6           V10   1.897       .  S
O6          C533   1.265       .  A
O7          V270   1.898       .  S
O7          C792   1.262       .  A
O8           V10   1.898       .  S
O8           C11   1.264   1_554  A
V9          O261   1.901       .  S
V9          O264   1.899       .  S
V9          V530   2.086   1_546  T
V10         O265   1.898   1_554  S
V10         O267   1.898   1_554  S
V10         V529   2.086   1_554  T
C11         O781   1.265       .  A
C11         C235   1.484   1_556  S
C12         O787   1.262   1_544  A
C12         C617   1.457   1_545  S
C13         O526   1.265   1_545  A
C13         C252   1.481       .  S
C14         O525   1.265       .  A
C14         C245   1.482       .  S
O15          V23   1.899       .  S
O15         C545   1.265   1_545  A
O16          V23   1.899       .  S
O16          C26   1.262   1_545  A
O17          V23   1.898       .  S
O17          C27   1.265   1_545  A
O18          V23   1.898       .  S
O18          C28   1.265   1_545  A
O19          V24   1.898       .  S
O19         C548   1.265       .  A
O20          V24   1.899       .  S
O20         C547   1.264       .  A
O21          V24   1.899       .  S
O21         C546   1.263       .  A
O22          V24   1.899       .  S
O22          C25   1.265       .  A
V23         V544   2.086   1_545  T
V24         V543   2.086       .  T
C25         O535   1.265       .  A
C25         C225   1.483       .  S
C26         O541   1.263       .  A
C26         C629   1.457       .  S
C27         O540   1.264       .  A
C27         C242   1.482       .  S
C28         O539   1.265       .  A
C28         C255   1.481       .  S
O29          V37   1.898       .  S
O29          C39   1.264       .  A
O30         V297   1.897       .  S
O30         C300   1.262       .  A
O31         V297   1.900       .  S
O31          C41   1.266       .  A
O32          V37   1.903       .  S
O32          C42   1.266       .  A
O33          V38   1.895       .  S
O33          C42   1.264       .  A
O34         V298   1.898       .  S
O34          C41   1.264       .  A
O35          V38   1.901       .  S
O35          C40   1.263       .  A
O36         V298   1.900       .  S
O36         C299   1.265       .  A
V37         O290   1.897       .  S
V37         O291   1.900       .  S
V37          V38   2.086       .  T
V38         O294   1.898       .  S
V38         O296   1.900       .  S
C39         O296   1.265       .  A
C39         C192   1.483       .  S
C40         O290   1.262       .  A
C40          C96   1.457       .  S
C41         C212   1.483       .  S
C42         C202   1.480       .  S
O43          V51   1.902       .  S
O43          C53   1.266       .  A
O44          V51   1.899       .  S
O44          C54   1.263       .  A
O45          V51   1.898       .  S
O45          C55   1.264       .  A
O46          V51   1.895       .  S
O46          C56   1.264       .  A
O47          V52   1.903       .  S
O47          C56   1.266       .  A
O48          V52   1.900       .  S
O48          C55   1.266       .  A
O49          V52   1.898       .  S
O49          C54   1.262       .  A
O50          V52   1.898       .  S
O50          C53   1.264       .  A
V51          V52   2.086       .  T
C53         C185   1.484       .  S
C54         C111   1.457       .  S
C55         C205   1.480       .  S
C56         C215   1.483       .  S
O57         V325   1.900       .  S
O57         C327   1.265       .  A
O58          V65   1.900       .  S
O58          C68   1.263       .  A
O59          V65   1.897   1_554  S
O59          C69   1.264       .  A
O60         V325   1.896       .  S
O60          C70   1.265       .  A
O61         V326   1.901       .  S
O61         C590   1.265       .  A
O62          V66   1.899       .  S
O62         C589   1.266   1_545  A
O63         V326   1.898       .  S
O63         C848   1.262       .  A
O64          V66   1.899       .  S
O64         C587   1.264       .  A
V65         O317   1.900       .  S
V65         O320   1.896       .  S
V65         V586   2.087   1_556  T
V66         O321   1.901   1_554  S
V66         O323   1.898   1_554  S
V66         V585   2.087   1_544  T
C67         O317   1.265   1_554  A
C67         O584   1.264       .  A
C67         C232   1.483       .  S
C68         O843   1.262       .  A
C68          C98   1.457       .  S
C69         O582   1.266       .  A
C69         C172   1.481       .  S
C70         O581   1.265       .  A
C70         C165   1.482       .  S
O71          V79   1.898       .  S
O71          C81   1.265       .  A
O72          V79   1.899       .  S
O72          C82   1.262       .  A
O73          V79   1.899       .  S
O73          C83   1.265       .  A
O74          V79   1.900       .  S
O74          C84   1.265       .  A
O75          V80   1.896       .  S
O75         C604   1.264   1_545  A
O76          V80   1.898       .  S
O76         C603   1.264   1_545  A
O77          V80   1.899       .  S
O77         C602   1.263   1_545  A
O78          V80   1.900       .  S
O78         C601   1.265   1_545  A
V79         V600   2.086       .  T
V80         V599   2.086   1_545  T
C81         O598   1.265       .  A
C81         C222   1.483       .  S
C82         O597   1.263       .  A
C82         C110   1.457       .  S
C83         O596   1.264       .  A
C83         C162   1.482       .  S
C84         O595   1.264       .  A
C84         C175   1.481       .  S
O85         V613   1.899   1_545  S
O85         C355   1.263   1_554  A
O86          V93   1.899       .  S
O86         C356   1.263       .  A
O87          V93   1.900       .  S
O87          C97   1.263       .  A
O88        V1133   1.899       .  S
O88          C98   1.263   1_554  A
O89        V1134   1.898       .  S
O89         C358   1.262       .  A
O90          V94   1.898       .  S
O90         C357   1.262       .  A
O91          V94   1.900       .  S
O91          C96   1.263       .  A
O92         V614   1.900   1_545  S
O92          C95   1.263       .  A
V93         O605   1.899       .  S
V93        O1128   1.899   1_455  S
V93         V354   2.090   1_554  T
V94        O1129   1.898   1_455  S
V94         O612   1.900       .  S
V94         V353   2.090       .  T
C95         O345   1.263       .  A
C95         C384   1.458       .  S
C96         O346   1.263       .  A
C97         O350   1.262   1_554  A
C97         C532   1.457       .  S
C98         O349   1.262       .  A
O99         V107   1.899       .  S
O99         C109   1.263       .  A
O100       V1147   1.899       .  S
O100        C110   1.263       .  A
O101        V107   1.899       .  S
O101        C111   1.263       .  A
O102        V627   1.899   1_545  S
O102        C112   1.263       .  A
O103        V628   1.900   1_545  S
O103        C112   1.263       .  A
O104        V108   1.899       .  S
O104        C111   1.263       .  A
O105       V1148   1.899       .  S
O105        C110   1.263       .  A
O106        V108   1.899       .  S
O106        C109   1.263       .  A
V107       O1140   1.899   1_455  S
V107        O622   1.899       .  S
V107        V108   2.090       .  T
V108        O623   1.900       .  S
V108       O1145   1.899   1_455  S
C109        C546   1.457       .  S
C112        C138   1.458       .  S
O113        V381   1.899       .  S
O113        C383   1.264       .  A
O114        V121   1.899   1_554  S
O114        C124   1.262   1_554  A
O115        V121   1.898   1_554  S
O115        C125   1.265       .  A
O116        V381   1.899       .  S
O116        C126   1.265       .  A
O117        V382   1.898       .  S
O117        C126   1.265       .  A
O118        V122   1.898   1_554  S
O118        C125   1.264       .  A
O119        V382   1.901       .  S
O119        C384   1.263       .  A
O120        V122   1.899       .  S
O120        C123   1.265       .  A
V121        O373   1.899       .  S
V121        O376   1.899       .  S
V121        V122   2.086       .  T
V122        O377   1.898       .  S
V122        O379   1.901       .  S
C123        O373   1.264       .  A
C123        C195   1.483       .  S
C124        O379   1.263       .  A
C124        C355   1.458       .  S
C125        C152   1.482       .  S
C126        C142   1.481       .  S
O127        V135   1.900       .  S
O127        C137   1.265       .  A
O128        V135   1.900       .  S
O128        C138   1.263       .  A
O129        V135   1.898       .  S
O129        C139   1.265       .  A
O130        V135   1.897       .  S
O130        C140   1.264       .  A
O131        V136   1.899       .  S
O131        C140   1.265       .  A
O132        V136   1.899       .  S
O132        C139   1.265       .  A
O133        V136   1.899       .  S
O133        C138   1.263       .  A
O134        V136   1.898       .  S
O134        C137   1.264       .  A
V135        V136   2.087       .  T
C137        C182   1.483       .  S
C139        C145   1.481       .  S
C140        C155   1.482       .  S
C141        C142   1.405       .  A
C141        C146   1.397       .  A
C141        H148   1.083       .  S
C142        C143   1.408       .  A
C143        C144   1.398       .  A
C143       F1190   1.357   1_455  S
C144        C145   1.405       .  A
C144       H1189   1.083   1_455  S
C145        C146   1.408       .  A
C146        F147   1.357       .  S
H149       C1184   1.083       .  S
F150       C1183   1.357       .  S
C151        C152   1.405       .  A
C151        C156   1.397       .  A
C151       H1198   1.083   1_455  S
C152        C153   1.409       .  A
C153        C154   1.398       .  A
C153        F160   1.357       .  S
C154        C155   1.405       .  A
C154        H159   1.083       .  S
C155        C156   1.409       .  A
C156       F1197   1.357   1_455  S
F157       C1196   1.357       .  S
H158       C1191   1.083       .  S
C161        C166   1.399       .  A
C161        C682   1.406   1_545  A
C161        H168   1.083       .  S
C162        C163   1.408       .  A
C162        C681   1.406       .  A
C163        C164   1.396       .  A
C163        F170   1.357       .  S
C164        C165   1.406       .  A
C164        H169   1.083       .  S
C165        C686   1.409       .  A
C166        C685   1.409       .  A
C166        F167   1.357       .  S
C171        C176   1.396       .  A
C171        C692   1.404   1_545  A
C171        H178   1.083       .  S
C172        C173   1.409       .  A
C172        C691   1.404       .  A
C173        C174   1.398       .  A
C173        F180   1.358       .  S
C174        C175   1.405       .  A
C174        H179   1.083       .  S
C175        C696   1.409       .  A
C176        C695   1.409   1_545  A
C176        F177   1.357       .  S
C181        C182   1.405       .  A
C181        C186   1.398       .  A
C181       H1228   1.083   1_455  S
C182        C183   1.409       .  A
C183        C184   1.398       .  A
C183        F190   1.357       .  S
C184        C185   1.405       .  A
C184        H189   1.083       .  S
C185        C186   1.409       .  A
C186       F1227   1.357   1_455  S
F187       C1226   1.357       .  S
H188       C1221   1.083       .  S
C191        C196   1.398       .  A
C191        C452   1.405   1_556  A
C191       H1238   1.083   1_455  S
C192        C193   1.409       .  A
C192        C451   1.405       .  A
C193        C194   1.398       .  A
C193        F200   1.357       .  S
C194        C455   1.405       .  A
C194        H199   1.083       .  S
C195        C196   1.409       .  A
C195        C454   1.405   1_556  A
C196       F1237   1.357   1_455  S
F197       C1236   1.357       .  S
H198       C1231   1.083       .  S
C201        C202   1.405       .  A
C201        C206   1.400       .  A
C201        H208   1.083       .  S
C202        C203   1.408       .  A
C203        C204   1.396       .  A
C203       F1250   1.357   1_455  S
C204        C205   1.404       .  A
C204       H1249   1.083   1_455  S
C205        C206   1.409       .  A
C206        F207   1.358       .  S
H209       C1244   1.083       .  S
F210       C1243   1.357       .  S
C211        C212   1.404       .  A
C211        C216   1.396       .  A
C211        H218   1.083       .  S
C212        C213   1.410       .  A
C213        C214   1.399       .  A
C213        F220   1.358   1_455  S
C214        C215   1.406       .  A
C214        H219   1.083   1_455  S
C215        C216   1.409       .  A
C216        F217   1.357       .  S
C221        C222   1.406       .  A
C221        C226   1.398       .  A
C221        H228   1.083       .  S
C222        C743   1.409       .  A
C223        C224   1.398       .  A
C223        C742   1.409   1_545  A
C223        F230   1.357       .  S
C224        C745   1.406   1_545  A
C224        H229   1.083       .  S
C225        C226   1.409       .  A
C225        C744   1.406       .  A
C226        F227   1.357       .  S
C231        C232   1.405   1_556  A
C231        C236   1.397       .  A
C231        H238   1.083       .  S
C232       C1013   1.409       .  A
C233        C234   1.399       .  A
C233       C1012   1.409       .  A
C233        F240   1.357       .  S
C234       C1015   1.406       .  A
C234        H239   1.083       .  S
C235        C236   1.409   1_554  A
C235       C1014   1.406       .  A
C236        F237   1.357       .  S
C241        C242   1.405   1_545  A
C241        C246   1.397       .  A
C241        H248   1.083       .  S
C242        C763   1.409       .  A
C243        C244   1.398       .  A
C243        C762   1.409       .  A
C243        F250   1.357       .  S
C244        C765   1.406       .  A
C244        H249   1.083       .  S
C245        C246   1.408   1_565  A
C245        C764   1.406       .  A
C246        F247   1.357       .  S
C251        C256   1.396       .  A
C251        C772   1.405       .  A
C251        H258   1.083       .  S
C252        C253   1.409       .  A
C252        C771   1.405   1_545  A
C253        C254   1.398       .  A
C253        F260   1.357       .  S
C254        C255   1.406   1_545  A
C254        H259   1.083       .  S
C255        C776   1.408       .  A
C256        C775   1.408       .  A
C256        F257   1.357       .  S
O261        C531   1.265       .  A
O262        V269   1.900       .  S
O262        C272   1.263       .  A
O263        V269   1.898       .  S
O263        C273   1.264       .  A
O264        C274   1.265   1_545  A
O265        C794   1.265       .  A
O266        V270   1.897       .  S
O266        C793   1.265       .  A
O267        C532   1.262   1_556  A
O268        V270   1.898       .  S
O268        C271   1.264       .  A
V269        V790   2.086   1_545  T
V270        V789   2.086       .  T
C271        O521   1.265       .  A
C271        C495   1.484       .  S
C272        O527   1.262   1_545  A
C272        C877   1.457   1_545  S
C273        O786   1.265   1_545  A
C273        C512   1.481       .  S
C274        O785   1.265       .  A
C274        C505   1.482       .  S
O275        V283   1.899       .  S
O275        C805   1.265   1_545  A
O276        V283   1.899       .  S
O276        C286   1.262   1_545  A
O277        V283   1.898       .  S
O277        C287   1.265   1_545  A
O278        V283   1.898       .  S
O278        C288   1.265   1_545  A
O279        V284   1.898       .  S
O279        C808   1.265       .  A
O280        V284   1.899       .  S
O280        C807   1.264       .  A
O281        V284   1.899       .  S
O281        C806   1.263       .  A
O282        V284   1.899       .  S
O282        C285   1.265       .  A
V283        V804   2.086   1_545  T
V284        V803   2.086       .  T
C285        O795   1.265       .  A
C285        C485   1.483       .  S
C286        O801   1.263       .  A
C286        C889   1.457       .  S
C287        O800   1.264       .  A
C287        C502   1.482       .  S
C288        O799   1.265       .  A
C288        C515   1.481       .  S
O289        V297   1.898       .  S
O289        C299   1.264       .  A
O291        C301   1.266       .  A
O292        V297   1.903   1_556  S
O292        C302   1.266       .  A
O293        V298   1.895   1_556  S
O293        C302   1.264       .  A
O294        C301   1.264       .  A
O295        V298   1.901   1_556  S
O295        C300   1.263   1_556  A
V297        V298   2.086       .  T
C299        C452   1.483       .  S
C300        C356   1.457       .  S
C301        C472   1.483       .  S
C302        C462   1.480       .  S
O303        V311   1.902       .  S
O303        C313   1.266       .  A
O304        V311   1.899       .  S
O304        C314   1.263       .  A
O305        V311   1.898       .  S
O305        C315   1.264       .  A
O306        V311   1.895       .  S
O306        C316   1.264       .  A
O307        V312   1.903       .  S
O307        C316   1.266       .  A
O308        V312   1.900       .  S
O308        C315   1.266       .  A
O309        V312   1.898       .  S
O309        C314   1.262       .  A
O310        V312   1.898       .  S
O310        C313   1.264       .  A
V311        V312   2.086       .  T
C313        C445   1.484       .  S
C314        C371   1.457       .  S
C315        C465   1.480       .  S
C316        C475   1.483       .  S
O318        V325   1.900       .  S
O318        C328   1.263       .  A
O319        V325   1.897       .  S
O319        C329   1.264       .  A
O320        C330   1.265       .  A
O321        C850   1.265       .  A
O322        V326   1.899       .  S
O322        C849   1.266   1_545  A
O323        C588   1.262       .  A
O324        V326   1.899       .  S
O324        C847   1.264       .  A
V325        V846   2.087       .  T
V326        V845   2.087   1_545  T
C327        O844   1.264       .  A
C327        C492   1.483       .  S
C328        O583   1.262       .  A
C328        C358   1.457       .  S
C329        O842   1.266       .  A
C329        C432   1.481       .  S
C330        O841   1.265       .  A
C330        C425   1.482       .  S
O331        V339   1.898       .  S
O331        C341   1.265       .  A
O332        V339   1.899       .  S
O332        C342   1.262       .  A
O333        V339   1.899       .  S
O333        C343   1.265       .  A
O334        V339   1.900       .  S
O334        C344   1.265       .  A
O335        V340   1.896       .  S
O335        C864   1.264   1_545  A
O336        V340   1.898       .  S
O336        C863   1.264   1_545  A
O337        V340   1.899       .  S
O337        C862   1.263   1_545  A
O338        V340   1.900       .  S
O338        C861   1.265   1_545  A
V339        V860   2.086       .  T
V340        V859   2.086   1_545  T
C341        O858   1.265       .  A
C341        C482   1.483       .  S
C342        O857   1.263       .  A
C342        C370   1.457       .  S
C343        O856   1.264       .  A
C343        C422   1.482       .  S
C344        O855   1.264       .  A
C344        C435   1.481       .  S
O345        V873   1.899   1_545  S
O346        V353   1.899       .  S
O347        V353   1.900       .  S
O347        C357   1.263       .  A
O348       V1393   1.899       .  S
O348        C358   1.263       .  A
O349       V1394   1.898       .  S
O350        V354   1.898       .  S
O351        V354   1.900       .  S
O351        C356   1.263   1_556  A
O352        V874   1.900   1_545  S
O352        C355   1.263       .  A
V353        O865   1.899       .  S
V353       O1388   1.899   1_455  S
V354       O1389   1.898   1_455  S
V354        O872   1.900       .  S
C357        C792   1.457       .  S
O359        V367   1.899       .  S
O359        C369   1.263       .  A
O360       V1407   1.899       .  S
O360        C370   1.263       .  A
O361        V367   1.899       .  S
O361        C371   1.263       .  A
O362        V887   1.899   1_545  S
O362        C372   1.263       .  A
O363        V888   1.900   1_545  S
O363        C372   1.263       .  A
O364        V368   1.899       .  S
O364        C371   1.263       .  A
O365       V1408   1.899       .  S
O365        C370   1.263       .  A
O366        V368   1.899       .  S
O366        C369   1.263       .  A
V367       O1400   1.899   1_455  S
V367        O882   1.899       .  S
V367        V368   2.090       .  T
V368        O883   1.900       .  S
V368       O1405   1.899   1_455  S
C369        C806   1.457       .  S
C372        C398   1.458       .  S
O374        V381   1.899       .  S
O374        C384   1.262       .  A
O375        V381   1.898       .  S
O375        C385   1.265       .  A
O376        C386   1.265       .  A
O377        C386   1.265       .  A
O378        V382   1.898       .  S
O378        C385   1.264       .  A
O380        V382   1.899       .  S
O380        C383   1.265       .  A
V381        V382   2.086       .  T
C383        C455   1.483       .  S
C385        C412   1.482       .  S
C386        C402   1.481       .  S
O387        V395   1.900       .  S
O387        C397   1.265       .  A
O388        V395   1.900       .  S
O388        C398   1.263       .  A
O389        V395   1.898       .  S
O389        C399   1.265       .  A
O390        V395   1.897       .  S
O390        C400   1.264       .  A
O391        V396   1.899       .  S
O391        C400   1.265       .  A
O392        V396   1.899       .  S
O392        C399   1.265       .  A
O393        V396   1.899       .  S
O393        C398   1.263       .  A
O394        V396   1.898       .  S
O394        C397   1.264       .  A
V395        V396   2.087       .  T
C397        C442   1.483       .  S
C399        C405   1.481       .  S
C400        C415   1.482       .  S
C401        C402   1.405       .  A
C401        C406   1.397       .  A
C401        H408   1.083       .  S
C402        C403   1.408       .  A
C403        C404   1.398       .  A
C403       F1450   1.357   1_455  S
C404        C405   1.405       .  A
C404       H1449   1.083   1_455  S
C405        C406   1.408       .  A
C406        F407   1.357       .  S
H409       C1444   1.083       .  S
F410       C1443   1.357       .  S
C411        C412   1.405       .  A
C411        C416   1.397       .  A
C411       H1458   1.083   1_455  S
C412        C413   1.409       .  A
C413        C414   1.398       .  A
C413        F420   1.357       .  S
C414        C415   1.405       .  A
C414        H419   1.083       .  S
C415        C416   1.409       .  A
C416       F1457   1.357   1_455  S
F417       C1456   1.357       .  S
H418       C1451   1.083       .  S
C421        C942   1.406   1_545  A
C421        C426   1.399       .  A
C421        H428   1.083       .  S
C422        C941   1.406       .  A
C422        C423   1.408       .  A
C423        C424   1.396       .  A
C423        F430   1.357       .  S
C424        C425   1.406       .  A
C424        H429   1.083       .  S
C425        C946   1.409       .  A
C426        C945   1.409       .  A
C426        F427   1.357       .  S
C431        C952   1.404   1_545  A
C431        C436   1.396       .  A
C431        H438   1.083       .  S
C432        C951   1.404       .  A
C432        C433   1.409       .  A
C433        C434   1.398       .  A
C433        F440   1.358       .  S
C434        C435   1.405       .  A
C434        H439   1.083       .  S
C435        C956   1.409       .  A
C436        C955   1.409   1_545  A
C436        F437   1.357       .  S
C441        C442   1.405       .  A
C441        C446   1.398       .  A
C441       H1488   1.083   1_455  S
C442        C443   1.409       .  A
C443        C444   1.398       .  A
C443        F450   1.357       .  S
C444        C445   1.405       .  A
C444        H449   1.083       .  S
C445        C446   1.409       .  A
C446       F1487   1.357   1_455  S
F447       C1486   1.357       .  S
H448       C1481   1.083       .  S
C451        C456   1.398       .  A
C451       H1498   1.083   1_455  S
C452        C453   1.409       .  A
C453        C454   1.398       .  A
C453        F460   1.357       .  S
C454        H459   1.083       .  S
C455        C456   1.409       .  A
C456       F1497   1.357   1_455  S
F457       C1496   1.357       .  S
H458       C1491   1.083       .  S
C461        C462   1.405       .  A
C461        C466   1.400       .  A
C461        H468   1.083       .  S
C462        C463   1.408       .  A
C463        C464   1.396       .  A
C463       F1510   1.357   1_455  S
C464        C465   1.404       .  A
C464       H1509   1.083   1_455  S
C465        C466   1.409       .  A
C466        F467   1.358       .  S
H469       C1504   1.083       .  S
F470       C1503   1.357       .  S
C471        C472   1.404       .  A
C471        C476   1.396       .  A
C471        H478   1.083       .  S
C472        C473   1.410       .  A
C473        C474   1.399       .  A
C473        F480   1.358   1_455  S
C474        C475   1.406       .  A
C474        H479   1.083   1_455  S
C475        C476   1.409       .  A
C476        F477   1.357       .  S
C481        C482   1.406       .  A
C481        C486   1.398       .  A
C481        H488   1.083       .  S
C482       C1003   1.409       .  A
C483       C1002   1.409   1_545  A
C483        C484   1.398       .  A
C483        F490   1.357       .  S
C484       C1005   1.406   1_545  A
C484        H489   1.083       .  S
C485       C1004   1.406       .  A
C485        C486   1.409       .  A
C486        F487   1.357       .  S
C491        C492   1.405       .  A
C491        C496   1.397       .  A
C491        H498   1.083       .  S
C492        C753   1.409       .  A
C493        C752   1.409       .  A
C493        C494   1.399       .  A
C493        F500   1.357       .  S
C494        C755   1.406       .  A
C494        H499   1.083       .  S
C495        C754   1.406       .  A
C495        C496   1.409       .  A
C496        F497   1.357       .  S
C501        C502   1.405   1_545  A
C501        C506   1.397       .  A
C501        H508   1.083       .  S
C502       C1023   1.409       .  A
C503       C1022   1.409       .  A
C503        C504   1.398       .  A
C503        F510   1.357       .  S
C504       C1025   1.406       .  A
C504        H509   1.083       .  S
C505       C1024   1.406       .  A
C505        C506   1.408   1_565  A
C506        F507   1.357       .  S
C511       C1032   1.405       .  A
C511        C516   1.396       .  A
C511        H518   1.083       .  S
C512       C1031   1.405   1_545  A
C512        C513   1.409       .  A
C513        C514   1.398       .  A
C513        F520   1.357       .  S
C514        C515   1.406   1_545  A
C514        H519   1.083       .  S
C515       C1036   1.408       .  A
C516       C1035   1.408       .  A
C516        F517   1.357       .  S
O521        V789   1.901       .  S
O522        V529   1.900   1_554  S
O522        C532   1.263       .  A
O523        V529   1.898   1_554  S
O523        C533   1.264       .  A
O524        V789   1.899       .  S
O524        C534   1.265       .  A
O525        V790   1.898       .  S
O526        V530   1.897       .  S
O527        V790   1.898       .  S
O528        V530   1.898       .  S
O528        C531   1.264   1_564  A
V529        O781   1.901       .  S
V529        O784   1.899       .  S
V530        O785   1.898   1_554  S
V530        O787   1.898   1_554  S
C531        C755   1.484   1_556  S
C533        C772   1.481       .  S
C534        C765   1.482       .  S
O535        V543   1.899       .  S
O536        V543   1.899       .  S
O536        C546   1.262       .  A
O537        V543   1.898       .  S
O537        C547   1.265       .  A
O538        V543   1.898       .  S
O538        C548   1.265       .  A
O539        V544   1.898       .  S
O540        V544   1.899       .  S
O541        V544   1.899       .  S
O542        V544   1.899       .  S
O542        C545   1.265       .  A
C545        C745   1.483       .  S
C547        C762   1.482       .  S
C548        C775   1.481       .  S
O549        V557   1.898       .  S
O549        C559   1.264       .  A
O550        V817   1.897       .  S
O550        C820   1.262       .  A
O551        V817   1.900       .  S
O551        C561   1.266       .  A
O552        V557   1.903       .  S
O552        C562   1.266       .  A
O553        V558   1.895       .  S
O553        C562   1.264       .  A
O554        V818   1.898       .  S
O554        C561   1.264       .  A
O555        V558   1.901       .  S
O555        C560   1.263       .  A
O556        V818   1.900       .  S
O556        C819   1.265       .  A
V557        O810   1.897       .  S
V557        O811   1.900       .  S
V557        V558   2.086       .  T
V558        O814   1.898       .  S
V558        O816   1.900       .  S
C559        O816   1.265       .  A
C559        C712   1.483       .  S
C560        O810   1.262       .  A
C560        C616   1.457       .  S
C561        C732   1.483       .  S
C562        C722   1.480       .  S
O563        V571   1.902       .  S
O563        C573   1.266       .  A
O564        V571   1.899       .  S
O564        C574   1.263       .  A
O565        V571   1.898       .  S
O565        C575   1.264       .  A
O566        V571   1.895       .  S
O566        C576   1.264       .  A
O567        V572   1.903       .  S
O567        C576   1.266       .  A
O568        V572   1.900       .  S
O568        C575   1.266       .  A
O569        V572   1.898       .  S
O569        C574   1.262       .  A
O570        V572   1.898       .  S
O570        C573   1.264       .  A
V571        V572   2.086       .  T
C573        C705   1.484       .  S
C574        C631   1.457       .  S
C575        C725   1.480       .  S
C576        C735   1.483       .  S
O577        V845   1.900       .  S
O577        C847   1.265   1_565  A
O578        V585   1.900       .  S
O578        C588   1.263   1_565  A
O579        V585   1.897   1_554  S
O579        C589   1.264       .  A
O580        V845   1.896       .  S
O580        C590   1.265   1_565  A
O581        V846   1.901       .  S
O582        V586   1.899       .  S
O583        V846   1.898       .  S
O584        V586   1.899       .  S
V585        O837   1.900       .  S
V585        O840   1.896       .  S
V586        O841   1.901   1_554  S
V586        O843   1.898   1_554  S
C587        O837   1.265   1_544  A
C587        C752   1.483       .  S
C588        C618   1.457   1_545  S
C589        C692   1.481       .  S
C590        C685   1.482       .  S
O591        V599   1.898       .  S
O591        C601   1.265       .  A
O592        V599   1.899       .  S
O592        C602   1.262       .  A
O593        V599   1.899       .  S
O593        C603   1.265       .  A
O594        V599   1.900       .  S
O594        C604   1.265       .  A
O595        V600   1.896       .  S
O596        V600   1.898       .  S
O597        V600   1.899       .  S
O598        V600   1.900       .  S
C601        C742   1.483       .  S
C602        C630   1.457       .  S
C603        C682   1.482       .  S
C604        C695   1.481       .  S
O605        C875   1.263   1_554  A
O606        V613   1.899       .  S
O606        C876   1.263       .  A
O607        V613   1.900   1_545  S
O607        C617   1.263   1_545  A
O608       V1653   1.899       .  S
O608        C618   1.263   1_554  A
O609       V1654   1.898   1_545  S
O609        C878   1.262   1_545  A
O610        V614   1.898       .  S
O610        C877   1.262       .  A
O611        V614   1.900       .  S
O611        C616   1.263       .  A
O612        C615   1.263       .  A
V613       O1648   1.899   1_455  S
V613        V874   2.090   1_554  T
V614       O1649   1.898   1_465  S
V614        V873   2.090       .  T
C615        O865   1.263       .  A
C615        C904   1.458       .  S
C616        O866   1.263       .  A
C617        O870   1.262   1_554  A
C618        O869   1.262   1_565  A
O619        V627   1.899       .  S
O619        C629   1.263       .  A
O620       V1667   1.899       .  S
O620        C630   1.263       .  A
O621        V627   1.899       .  S
O621        C631   1.263       .  A
O622        C632   1.263       .  A
O623        C632   1.263       .  A
O624        V628   1.899       .  S
O624        C631   1.263       .  A
O625       V1668   1.899       .  S
O625        C630   1.263       .  A
O626        V628   1.899       .  S
O626        C629   1.263       .  A
V627       O1660   1.899   1_455  S
V627        V628   2.090       .  T
V628       O1665   1.899   1_455  S
C632        C658   1.458       .  S
O633        V901   1.899       .  S
O633        C903   1.264       .  A
O634        V641   1.899   1_554  S
O634        C644   1.262   1_554  A
O635        V641   1.898   1_554  S
O635        C645   1.265       .  A
O636        V901   1.899       .  S
O636        C646   1.265       .  A
O637        V902   1.898       .  S
O637        C646   1.265       .  A
O638        V642   1.898   1_554  S
O638        C645   1.264       .  A
O639        V902   1.901       .  S
O639        C904   1.263       .  A
O640        V642   1.899       .  S
O640        C643   1.265       .  A
V641        O893   1.899       .  S
V641        O896   1.899       .  S
V641        V642   2.086       .  T
V642        O897   1.898       .  S
V642        O899   1.901       .  S
C643        O893   1.264       .  A
C643        C715   1.483       .  S
C644        O899   1.263       .  A
C644        C875   1.458       .  S
C645        C672   1.482       .  S
C646        C662   1.481       .  S
O647        V655   1.900       .  S
O647        C657   1.265       .  A
O648        V655   1.900       .  S
O648        C658   1.263       .  A
O649        V655   1.898       .  S
O649        C659   1.265       .  A
O650        V655   1.897       .  S
O650        C660   1.264       .  A
O651        V656   1.899       .  S
O651        C660   1.265       .  A
O652        V656   1.899       .  S
O652        C659   1.265       .  A
O653        V656   1.899       .  S
O653        C658   1.263       .  A
O654        V656   1.898       .  S
O654        C657   1.264       .  A
V655        V656   2.087       .  T
C657        C702   1.483       .  S
C659        C665   1.481       .  S
C660        C675   1.482       .  S
C661        C662   1.405       .  A
C661        C666   1.397       .  A
C661        H668   1.083       .  S
C662        C663   1.408       .  A
C663        C664   1.398       .  A
C663       F1710   1.357   1_455  S
C664        C665   1.405       .  A
C664       H1709   1.083   1_455  S
C665        C666   1.408       .  A
C666        F667   1.357       .  S
H669       C1704   1.083       .  S
F670       C1703   1.357       .  S
C671        C672   1.405       .  A
C671        C676   1.397       .  A
C671       H1718   1.083   1_455  S
C672        C673   1.409       .  A
C673        C674   1.398       .  A
C673        F680   1.357       .  S
C674        C675   1.405       .  A
C674        H679   1.083       .  S
C675        C676   1.409       .  A
C676       F1717   1.357   1_455  S
F677       C1716   1.357       .  S
H678       C1711   1.083       .  S
C681        C686   1.399       .  A
C681        H688   1.083       .  S
C682        C683   1.408       .  A
C683        C684   1.396       .  A
C683        F690   1.357       .  S
C684        C685   1.406   1_565  A
C684        H689   1.083       .  S
C686        F687   1.357       .  S
C691        C696   1.396       .  A
C691        H698   1.083       .  S
C692        C693   1.409       .  A
C693        C694   1.398       .  A
C693        F700   1.358       .  S
C694        C695   1.405       .  A
C694        H699   1.083       .  S
C696        F697   1.357       .  S
C701        C702   1.405       .  A
C701        C706   1.398       .  A
C701       H1748   1.083   1_455  S
C702        C703   1.409       .  A
C703        C704   1.398       .  A
C703        F710   1.357       .  S
C704        C705   1.405       .  A
C704        H709   1.083       .  S
C705        C706   1.409       .  A
C706       F1747   1.357   1_455  S
F707       C1746   1.357       .  S
H708       C1741   1.083       .  S
C711        C972   1.405   1_556  A
C711        C716   1.398       .  A
C711       H1758   1.083   1_455  S
C712        C971   1.405       .  A
C712        C713   1.409       .  A
C713        C714   1.398       .  A
C713        F720   1.357       .  S
C714        C975   1.405       .  A
C714        H719   1.083       .  S
C715        C974   1.405   1_556  A
C715        C716   1.409       .  A
C716       F1757   1.357   1_455  S
F717       C1756   1.357       .  S
H718       C1751   1.083       .  S
C721        C722   1.405       .  A
C721        C726   1.400       .  A
C721        H728   1.083       .  S
C722        C723   1.408       .  A
C723        C724   1.396       .  A
C723       F1770   1.357   1_455  S
C724        C725   1.404       .  A
C724       H1769   1.083   1_455  S
C725        C726   1.409       .  A
C726        F727   1.358       .  S
H729       C1764   1.083       .  S
F730       C1763   1.357       .  S
C731        C732   1.404       .  A
C731        C736   1.396       .  A
C731        H738   1.083       .  S
C732        C733   1.410       .  A
C733        C734   1.399       .  A
C733        F740   1.358   1_455  S
C734        C735   1.406       .  A
C734        H739   1.083   1_455  S
C735        C736   1.409       .  A
C736        F737   1.357       .  S
C741        C742   1.406       .  A
C741        C746   1.398       .  A
C741        H748   1.083       .  S
C743        C744   1.398       .  A
C743        F750   1.357       .  S
C744        H749   1.083       .  S
C745        C746   1.409       .  A
C746        F747   1.357       .  S
C751        C752   1.405   1_566  A
C751        C756   1.397       .  A
C751        H758   1.083       .  S
C753        C754   1.399       .  A
C753        F760   1.357       .  S
C754        H759   1.083       .  S
C755        C756   1.409   1_544  A
C756        F757   1.357       .  S
C761        C762   1.405       .  A
C761        C766   1.397       .  A
C761        H768   1.083       .  S
C763        C764   1.398       .  A
C763        F770   1.357       .  S
C764        H769   1.083       .  S
C765        C766   1.408       .  A
C766        F767   1.357       .  S
C771        C776   1.396       .  A
C771        H778   1.083       .  S
C772        C773   1.409       .  A
C773        C774   1.398       .  A
C773        F780   1.357       .  S
C774        C775   1.406       .  A
C774        H779   1.083       .  S
C776        F777   1.357       .  S
O782        V789   1.900       .  S
O782        C792   1.263       .  A
O783        V789   1.898       .  S
O783        C793   1.264       .  A
O784        C794   1.265       .  A
O786        V790   1.897       .  S
O788        V790   1.898       .  S
O788        C791   1.264   1_565  A
C791       C1015   1.484       .  S
C793       C1032   1.481       .  S
C794       C1025   1.482       .  S
O795        V803   1.899       .  S
O796        V803   1.899       .  S
O796        C806   1.262       .  A
O797        V803   1.898       .  S
O797        C807   1.265       .  A
O798        V803   1.898       .  S
O798        C808   1.265       .  A
O799        V804   1.898       .  S
O800        V804   1.899       .  S
O801        V804   1.899       .  S
O802        V804   1.899       .  S
O802        C805   1.265       .  A
C805       C1005   1.483       .  S
C807       C1022   1.482       .  S
C808       C1035   1.481       .  S
O809        V817   1.898       .  S
O809        C819   1.264       .  A
O811        C821   1.266       .  A
O812        V817   1.903   1_556  S
O812        C822   1.266       .  A
O813        V818   1.895   1_556  S
O813        C822   1.264       .  A
O814        C821   1.264       .  A
O815        V818   1.901   1_556  S
O815        C820   1.263   1_556  A
V817        V818   2.086       .  T
C819        C972   1.483       .  S
C820        C876   1.457       .  S
C821        C992   1.483       .  S
C822        C982   1.480       .  S
O823        V831   1.902       .  S
O823        C833   1.266       .  A
O824        V831   1.899       .  S
O824        C834   1.263       .  A
O825        V831   1.898       .  S
O825        C835   1.264       .  A
O826        V831   1.895       .  S
O826        C836   1.264       .  A
O827        V832   1.903       .  S
O827        C836   1.266       .  A
O828        V832   1.900       .  S
O828        C835   1.266       .  A
O829        V832   1.898       .  S
O829        C834   1.262       .  A
O830        V832   1.898       .  S
O830        C833   1.264       .  A
V831        V832   2.086       .  T
C833        C965   1.484       .  S
C834        C891   1.457       .  S
C835        C985   1.480       .  S
C836        C995   1.483       .  S
O838        V845   1.900       .  S
O838        C848   1.263   1_565  A
O839        V845   1.897       .  S
O839        C849   1.264       .  A
O840        C850   1.265   1_565  A
O842        V846   1.899       .  S
O844        V846   1.899       .  S
C847       C1012   1.483       .  S
C848        C878   1.457   1_545  S
C849        C952   1.481       .  S
C850        C945   1.482       .  S
O851        V859   1.898       .  S
O851        C861   1.265       .  A
O852        V859   1.899       .  S
O852        C862   1.262       .  A
O853        V859   1.899       .  S
O853        C863   1.265       .  A
O854        V859   1.900       .  S
O854        C864   1.265       .  A
O855        V860   1.896       .  S
O856        V860   1.898       .  S
O857        V860   1.899       .  S
O858        V860   1.900       .  S
C861       C1002   1.483       .  S
C862        C890   1.457       .  S
C863        C942   1.482       .  S
C864        C955   1.481       .  S
O866        V873   1.899       .  S
O867        V873   1.900   1_545  S
O867        C877   1.263   1_545  A
O868       V1913   1.899       .  S
O868        C878   1.263       .  A
O869       V1914   1.898   1_545  S
O870        V874   1.898       .  S
O871        V874   1.900       .  S
O871        C876   1.263   1_556  A
O872        C875   1.263       .  A
V873       O1908   1.899   1_455  S
V874       O1909   1.898   1_465  S
O879        V887   1.899       .  S
O879        C889   1.263       .  A
O880       V1927   1.899       .  S
O880        C890   1.263       .  A
O881        V887   1.899       .  S
O881        C891   1.263       .  A
O882        C892   1.263       .  A
O883        C892   1.263       .  A
O884        V888   1.899       .  S
O884        C891   1.263       .  A
O885       V1928   1.899       .  S
O885        C890   1.263       .  A
O886        V888   1.899       .  S
O886        C889   1.263       .  A
V887       O1920   1.899   1_455  S
V887        V888   2.090       .  T
V888       O1925   1.899   1_455  S
C892        C918   1.458       .  S
O894        V901   1.899       .  S
O894        C904   1.262       .  A
O895        V901   1.898       .  S
O895        C905   1.265       .  A
O896        C906   1.265       .  A
O897        C906   1.265       .  A
O898        V902   1.898       .  S
O898        C905   1.264       .  A
O900        V902   1.899       .  S
O900        C903   1.265       .  A
V901        V902   2.086       .  T
C903        C975   1.483       .  S
C905        C932   1.482       .  S
C906        C922   1.481       .  S
O907        V915   1.900       .  S
O907        C917   1.265       .  A
O908        V915   1.900       .  S
O908        C918   1.263       .  A
O909        V915   1.898       .  S
O909        C919   1.265       .  A
O910        V915   1.897       .  S
O910        C920   1.264       .  A
O911        V916   1.899       .  S
O911        C920   1.265       .  A
O912        V916   1.899       .  S
O912        C919   1.265       .  A
O913        V916   1.899       .  S
O913        C918   1.263       .  A
O914        V916   1.898       .  S
O914        C917   1.264       .  A
V915        V916   2.087       .  T
C917        C962   1.483       .  S
C919        C925   1.481       .  S
C920        C935   1.482       .  S
C921        C922   1.405       .  A
C921        C926   1.397       .  A
C921        H928   1.083       .  S
C922        C923   1.408       .  A
C923        C924   1.398       .  A
C923       F1970   1.357   1_455  S
C924        C925   1.405       .  A
C924       H1969   1.083   1_455  S
C925        C926   1.408       .  A
C926        F927   1.357       .  S
H929       C1964   1.083       .  S
F930       C1963   1.357       .  S
C931        C932   1.405       .  A
C931        C936   1.397       .  A
C931       H1978   1.083   1_455  S
C932        C933   1.409       .  A
C933        C934   1.398       .  A
C933        F940   1.357       .  S
C934        C935   1.405       .  A
C934        H939   1.083       .  S
C935        C936   1.409       .  A
C936       F1977   1.357   1_455  S
F937       C1976   1.357       .  S
H938       C1971   1.083       .  S
C941        C946   1.399       .  A
C941        H948   1.083       .  S
C942        C943   1.408       .  A
C943        C944   1.396       .  A
C943        F950   1.357       .  S
C944        C945   1.406   1_565  A
C944        H949   1.083       .  S
C946        F947   1.357       .  S
C951        C956   1.396       .  A
C951        H958   1.083       .  S
C952        C953   1.409       .  A
C953        C954   1.398       .  A
C953        F960   1.358       .  S
C954        C955   1.405       .  A
C954        H959   1.083       .  S
C956        F957   1.357       .  S
C961        C962   1.405       .  A
C961        C966   1.398       .  A
C961       H2008   1.083   1_455  S
C962        C963   1.409       .  A
C963        C964   1.398       .  A
C963        F970   1.357       .  S
C964        C965   1.405       .  A
C964        H969   1.083       .  S
C965        C966   1.409       .  A
C966       F2007   1.357   1_455  S
F967       C2006   1.357       .  S
H968       C2001   1.083       .  S
C971        C976   1.398       .  A
C971       H2018   1.083   1_455  S
C972        C973   1.409       .  A
C973        C974   1.398       .  A
C973        F980   1.357       .  S
C974        H979   1.083       .  S
C975        C976   1.409       .  A
C976       F2017   1.357   1_455  S
F977       C2016   1.357       .  S
H978       C2011   1.083       .  S
C981        C982   1.405       .  A
C981        C986   1.400       .  A
C981        H988   1.083       .  S
C982        C983   1.408       .  A
C983        C984   1.396       .  A
C983       F2030   1.357   1_455  S
C984        C985   1.404       .  A
C984       H2029   1.083   1_455  S
C985        C986   1.409       .  A
C986        F987   1.358       .  S
H989       C2024   1.083       .  S
F990       C2023   1.357       .  S
C991        C992   1.404       .  A
C991        C996   1.396       .  A
C991        H998   1.083       .  S
C992        C993   1.410       .  A
C993        C994   1.399       .  A
C993       F1000   1.358   1_455  S
C994        C995   1.406       .  A
C994        H999   1.083   1_455  S
C995        C996   1.409       .  A
C996        F997   1.357       .  S
C1001      C1002   1.406       .  A
C1001      C1006   1.398       .  A
C1001      H1008   1.083       .  S
C1003      C1004   1.398       .  A
C1003      F1010   1.357       .  S
C1004      H1009   1.083       .  S
C1005      C1006   1.409       .  A
C1006      F1007   1.357       .  S
C1011      C1012   1.405   1_565  A
C1011      C1016   1.397       .  A
C1011      H1018   1.083       .  S
C1013      C1014   1.399       .  A
C1013      F1020   1.357       .  S
C1014      H1019   1.083       .  S
C1015      C1016   1.409   1_545  A
C1016      F1017   1.357       .  S
C1021      C1022   1.405       .  A
C1021      C1026   1.397       .  A
C1021      H1028   1.083       .  S
C1023      C1024   1.398       .  A
C1023      F1030   1.357       .  S
C1024      H1029   1.083       .  S
C1025      C1026   1.408       .  A
C1026      F1027   1.357       .  S
C1031      C1036   1.396       .  A
C1031      H1038   1.083       .  S
C1032      C1033   1.409       .  A
C1033      C1034   1.398       .  A
C1033      F1040   1.357       .  S
C1034      C1035   1.406       .  A
C1034      H1039   1.083       .  S
C1036      F1037   1.357       .  S
O1041      V1309   1.901       .  S
O1041      C1831   1.265       .  A
O1042      V1049   1.900   1_554  S
O1042      C1052   1.263       .  A
O1043      V1049   1.898   1_554  S
O1043      C1053   1.264       .  A
O1044      V1309   1.899       .  S
O1044      C1054   1.265   1_545  A
O1045      V1310   1.898       .  S
O1045      C1574   1.265       .  A
O1046      V1050   1.897       .  S
O1046      C1573   1.265       .  A
O1047      V1310   1.898       .  S
O1047      C1832   1.262       .  A
O1048      V1050   1.898       .  S
O1048      C1051   1.264   1_554  A
V1049      O1301   1.901       .  S
V1049      O1304   1.899       .  S
V1049      V1570   2.086   1_546  T
V1050      O1305   1.898   1_554  S
V1050      O1307   1.898   1_554  S
V1050      V1569   2.086   1_554  T
C1051      O1821   1.265       .  A
C1051      C1275   1.484   1_556  S
C1052      O1827   1.262   1_544  A
C1052      C1657   1.457   1_545  S
C1053      O1566   1.265   1_545  A
C1053      C1292   1.481       .  S
C1054      O1565   1.265       .  A
C1054      C1285   1.482       .  S
O1055      V1063   1.899       .  S
O1055      C1585   1.265   1_545  A
O1056      V1063   1.899       .  S
O1056      C1066   1.262   1_545  A
O1057      V1063   1.898       .  S
O1057      C1067   1.265   1_545  A
O1058      V1063   1.898       .  S
O1058      C1068   1.265   1_545  A
O1059      V1064   1.898       .  S
O1059      C1588   1.265       .  A
O1060      V1064   1.899       .  S
O1060      C1587   1.264       .  A
O1061      V1064   1.899       .  S
O1061      C1586   1.263       .  A
O1062      V1064   1.899       .  S
O1062      C1065   1.265       .  A
V1063      V1584   2.086   1_545  T
V1064      V1583   2.086       .  T
C1065      O1575   1.265       .  A
C1065      C1265   1.483       .  S
C1066      O1581   1.263       .  A
C1066      C1669   1.457       .  S
C1067      O1580   1.264       .  A
C1067      C1282   1.482       .  S
C1068      O1579   1.265       .  A
C1068      C1295   1.481       .  S
O1069      V1077   1.898       .  S
O1069      C1079   1.264       .  A
O1070      V1337   1.897       .  S
O1070      C1340   1.262       .  A
O1071      V1337   1.900       .  S
O1071      C1081   1.266       .  A
O1072      V1077   1.903       .  S
O1072      C1082   1.266       .  A
O1073      V1078   1.895       .  S
O1073      C1082   1.264       .  A
O1074      V1338   1.898       .  S
O1074      C1081   1.264       .  A
O1075      V1078   1.901       .  S
O1075      C1080   1.263       .  A
O1076      V1338   1.900       .  S
O1076      C1339   1.265       .  A
V1077      O1330   1.897       .  S
V1077      O1331   1.900       .  S
V1077      V1078   2.086       .  T
V1078      O1334   1.898       .  S
V1078      O1336   1.900       .  S
C1079      O1336   1.265       .  A
C1079      C1232   1.483       .  S
C1080      O1330   1.262       .  A
C1080      C1136   1.457       .  S
C1081      C1252   1.483       .  S
C1082      C1242   1.480       .  S
O1083      V1091   1.902       .  S
O1083      C1093   1.266       .  A
O1084      V1091   1.899       .  S
O1084      C1094   1.263       .  A
O1085      V1091   1.898       .  S
O1085      C1095   1.264       .  A
O1086      V1091   1.895       .  S
O1086      C1096   1.264       .  A
O1087      V1092   1.903       .  S
O1087      C1096   1.266       .  A
O1088      V1092   1.900       .  S
O1088      C1095   1.266       .  A
O1089      V1092   1.898       .  S
O1089      C1094   1.262       .  A
O1090      V1092   1.898       .  S
O1090      C1093   1.264       .  A
V1091      V1092   2.086       .  T
C1093      C1225   1.484       .  S
C1094      C1151   1.457       .  S
C1095      C1245   1.480       .  S
C1096      C1255   1.483       .  S
O1097      V1365   1.900       .  S
O1097      C1367   1.265       .  A
O1098      V1105   1.900       .  S
O1098      C1108   1.263       .  A
O1099      V1105   1.897   1_554  S
O1099      C1109   1.264       .  A
O1100      V1365   1.896       .  S
O1100      C1110   1.265       .  A
O1101      V1366   1.901       .  S
O1101      C1630   1.265       .  A
O1102      V1106   1.899       .  S
O1102      C1629   1.266   1_545  A
O1103      V1366   1.898       .  S
O1103      C1888   1.262       .  A
O1104      V1106   1.899       .  S
O1104      C1627   1.264       .  A
V1105      O1357   1.900       .  S
V1105      O1360   1.896       .  S
V1105      V1626   2.087   1_556  T
V1106      O1361   1.901   1_554  S
V1106      O1363   1.898   1_554  S
V1106      V1625   2.087   1_544  T
C1107      O1357   1.265   1_554  A
C1107      O1624   1.264       .  A
C1107      C1272   1.483       .  S
C1108      O1883   1.262       .  A
C1108      C1138   1.457       .  S
C1109      O1622   1.266       .  A
C1109      C1212   1.481       .  S
C1110      O1621   1.265       .  A
C1110      C1205   1.482       .  S
O1111      V1119   1.898       .  S
O1111      C1121   1.265       .  A
O1112      V1119   1.899       .  S
O1112      C1122   1.262       .  A
O1113      V1119   1.899       .  S
O1113      C1123   1.265       .  A
O1114      V1119   1.900       .  S
O1114      C1124   1.265       .  A
O1115      V1120   1.896       .  S
O1115      C1644   1.264   1_545  A
O1116      V1120   1.898       .  S
O1116      C1643   1.264   1_545  A
O1117      V1120   1.899       .  S
O1117      C1642   1.263   1_545  A
O1118      V1120   1.900       .  S
O1118      C1641   1.265   1_545  A
V1119      V1640   2.086       .  T
V1120      V1639   2.086   1_545  T
C1121      O1638   1.265       .  A
C1121      C1262   1.483       .  S
C1122      O1637   1.263       .  A
C1122      C1150   1.457       .  S
C1123      O1636   1.264       .  A
C1123      C1202   1.482       .  S
C1124      O1635   1.264       .  A
C1124      C1215   1.481       .  S
O1125      V1653   1.899   1_545  S
O1125      C1395   1.263   1_554  A
O1126      V1133   1.899       .  S
O1126      C1396   1.263       .  A
O1127      V1133   1.900       .  S
O1127      C1137   1.263       .  A
O1128      C1138   1.263   1_554  A
O1129      C1398   1.262       .  A
O1130      V1134   1.898       .  S
O1130      C1397   1.262       .  A
O1131      V1134   1.900       .  S
O1131      C1136   1.263       .  A
O1132      V1654   1.900   1_545  S
O1132      C1135   1.263       .  A
V1133      O1645   1.899       .  S
V1133      V1394   2.090   1_554  T
V1134      O1652   1.900       .  S
V1134      V1393   2.090       .  T
C1135      O1385   1.263       .  A
C1135      C1424   1.458       .  S
C1136      O1386   1.263       .  A
C1137      O1390   1.262   1_554  A
C1137      C1572   1.457       .  S
C1138      O1389   1.262       .  A
O1139      V1147   1.899       .  S
O1139      C1149   1.263       .  A
O1140      C1150   1.263       .  A
O1141      V1147   1.899       .  S
O1141      C1151   1.263       .  A
O1142      V1667   1.899   1_545  S
O1142      C1152   1.263       .  A
O1143      V1668   1.900   1_545  S
O1143      C1152   1.263       .  A
O1144      V1148   1.899       .  S
O1144      C1151   1.263       .  A
O1145      C1150   1.263       .  A
O1146      V1148   1.899       .  S
O1146      C1149   1.263       .  A
V1147      O1662   1.899       .  S
V1147      V1148   2.090       .  T
V1148      O1663   1.900       .  S
C1149      C1586   1.457       .  S
C1152      C1178   1.458       .  S
O1153      V1421   1.899       .  S
O1153      C1423   1.264       .  A
O1154      V1161   1.899   1_554  S
O1154      C1164   1.262   1_554  A
O1155      V1161   1.898   1_554  S
O1155      C1165   1.265       .  A
O1156      V1421   1.899       .  S
O1156      C1166   1.265       .  A
O1157      V1422   1.898       .  S
O1157      C1166   1.265       .  A
O1158      V1162   1.898   1_554  S
O1158      C1165   1.264       .  A
O1159      V1422   1.901       .  S
O1159      C1424   1.263       .  A
O1160      V1162   1.899       .  S
O1160      C1163   1.265       .  A
V1161      O1413   1.899       .  S
V1161      O1416   1.899       .  S
V1161      V1162   2.086       .  T
V1162      O1417   1.898       .  S
V1162      O1419   1.901       .  S
C1163      O1413   1.264       .  A
C1163      C1235   1.483       .  S
C1164      O1419   1.263       .  A
C1164      C1395   1.458       .  S
C1165      C1192   1.482       .  S
C1166      C1182   1.481       .  S
O1167      V1175   1.900       .  S
O1167      C1177   1.265       .  A
O1168      V1175   1.900       .  S
O1168      C1178   1.263       .  A
O1169      V1175   1.898       .  S
O1169      C1179   1.265       .  A
O1170      V1175   1.897       .  S
O1170      C1180   1.264       .  A
O1171      V1176   1.899       .  S
O1171      C1180   1.265       .  A
O1172      V1176   1.899       .  S
O1172      C1179   1.265       .  A
O1173      V1176   1.899       .  S
O1173      C1178   1.263       .  A
O1174      V1176   1.898       .  S
O1174      C1177   1.264       .  A
V1175      V1176   2.087       .  T
C1177      C1222   1.483       .  S
C1179      C1185   1.481       .  S
C1180      C1195   1.482       .  S
C1181      C1182   1.405       .  A
C1181      C1186   1.397       .  A
C1181      H1188   1.083       .  S
C1182      C1183   1.408       .  A
C1183      C1184   1.398       .  A
C1184      C1185   1.405       .  A
C1185      C1186   1.408       .  A
C1186      F1187   1.357       .  S
C1191      C1192   1.405       .  A
C1191      C1196   1.397       .  A
C1192      C1193   1.409       .  A
C1193      C1194   1.398       .  A
C1193      F1200   1.357       .  S
C1194      C1195   1.405       .  A
C1194      H1199   1.083       .  S
C1195      C1196   1.409       .  A
C1201      C1722   1.406   1_545  A
C1201      C1206   1.399       .  A
C1201      H1208   1.083       .  S
C1202      C1721   1.406       .  A
C1202      C1203   1.408       .  A
C1203      C1204   1.396       .  A
C1203      F1210   1.357       .  S
C1204      C1205   1.406       .  A
C1204      H1209   1.083       .  S
C1205      C1726   1.409       .  A
C1206      C1725   1.409       .  A
C1206      F1207   1.357       .  S
C1211      C1732   1.404   1_545  A
C1211      C1216   1.396       .  A
C1211      H1218   1.083       .  S
C1212      C1731   1.404       .  A
C1212      C1213   1.409       .  A
C1213      C1214   1.398       .  A
C1213      F1220   1.358       .  S
C1214      C1215   1.405       .  A
C1214      H1219   1.083       .  S
C1215      C1736   1.409       .  A
C1216      C1735   1.409   1_545  A
C1216      F1217   1.357       .  S
C1221      C1222   1.405       .  A
C1221      C1226   1.398       .  A
C1222      C1223   1.409       .  A
C1223      C1224   1.398       .  A
C1223      F1230   1.357       .  S
C1224      C1225   1.405       .  A
C1224      H1229   1.083       .  S
C1225      C1226   1.409       .  A
C1231      C1492   1.405   1_556  A
C1231      C1236   1.398       .  A
C1232      C1491   1.405       .  A
C1232      C1233   1.409       .  A
C1233      C1234   1.398       .  A
C1233      F1240   1.357       .  S
C1234      C1495   1.405       .  A
C1234      H1239   1.083       .  S
C1235      C1494   1.405   1_556  A
C1235      C1236   1.409       .  A
C1241      C1242   1.405       .  A
C1241      C1246   1.400       .  A
C1241      H1248   1.083       .  S
C1242      C1243   1.408       .  A
C1243      C1244   1.396       .  A
C1244      C1245   1.404       .  A
C1245      C1246   1.409       .  A
C1246      F1247   1.358       .  S
C1251      C1252   1.404       .  A
C1251      C1256   1.396       .  A
C1251      H1258   1.083       .  S
C1252      C1253   1.410       .  A
C1253      C1254   1.399       .  A
C1253      F1260   1.358       .  S
C1254      C1255   1.406       .  A
C1254      H1259   1.083       .  S
C1255      C1256   1.409       .  A
C1256      F1257   1.357       .  S
C1261      C1262   1.406       .  A
C1261      C1266   1.398       .  A
C1261      H1268   1.083       .  S
C1262      C1783   1.409       .  A
C1263      C1782   1.409   1_545  A
C1263      C1264   1.398       .  A
C1263      F1270   1.357       .  S
C1264      C1785   1.406   1_545  A
C1264      H1269   1.083       .  S
C1265      C1784   1.406       .  A
C1265      C1266   1.409       .  A
C1266      F1267   1.357       .  S
C1271      C1272   1.405   1_556  A
C1271      C1276   1.397       .  A
C1271      H1278   1.083       .  S
C1272      C2053   1.409       .  A
C1273      C2052   1.409       .  A
C1273      C1274   1.399       .  A
C1273      F1280   1.357       .  S
C1274      C2055   1.406       .  A
C1274      H1279   1.083       .  S
C1275      C2054   1.406       .  A
C1275      C1276   1.409   1_554  A
C1276      F1277   1.357       .  S
C1281      C1282   1.405   1_545  A
C1281      C1286   1.397       .  A
C1281      H1288   1.083       .  S
C1282      C1803   1.409       .  A
C1283      C1802   1.409       .  A
C1283      C1284   1.398       .  A
C1283      F1290   1.357       .  S
C1284      C1805   1.406       .  A
C1284      H1289   1.083       .  S
C1285      C1804   1.406       .  A
C1285      C1286   1.408   1_565  A
C1286      F1287   1.357       .  S
C1291      C1812   1.405       .  A
C1291      C1296   1.396       .  A
C1291      H1298   1.083       .  S
C1292      C1811   1.405   1_545  A
C1292      C1293   1.409       .  A
C1293      C1294   1.398       .  A
C1293      F1300   1.357       .  S
C1294      C1295   1.406   1_545  A
C1294      H1299   1.083       .  S
C1295      C1816   1.408       .  A
C1296      C1815   1.408       .  A
C1296      F1297   1.357       .  S
O1301      C1571   1.265       .  A
O1302      V1309   1.900       .  S
O1302      C1312   1.263       .  A
O1303      V1309   1.898       .  S
O1303      C1313   1.264       .  A
O1304      C1314   1.265   1_545  A
O1305      C1834   1.265       .  A
O1306      V1310   1.897       .  S
O1306      C1833   1.265       .  A
O1307      C1572   1.262   1_556  A
O1308      V1310   1.898       .  S
O1308      C1311   1.264       .  A
V1309      V1830   2.086   1_545  T
V1310      V1829   2.086       .  T
C1311      O1561   1.265       .  A
C1311      C1535   1.484       .  S
C1312      O1567   1.262   1_545  A
C1312      C1917   1.457   1_545  S
C1313      O1826   1.265   1_545  A
C1313      C1552   1.481       .  S
C1314      O1825   1.265       .  A
C1314      C1545   1.482       .  S
O1315      V1323   1.899       .  S
O1315      C1845   1.265   1_545  A
O1316      V1323   1.899       .  S
O1316      C1326   1.262   1_545  A
O1317      V1323   1.898       .  S
O1317      C1327   1.265   1_545  A
O1318      V1323   1.898       .  S
O1318      C1328   1.265   1_545  A
O1319      V1324   1.898       .  S
O1319      C1848   1.265       .  A
O1320      V1324   1.899       .  S
O1320      C1847   1.264       .  A
O1321      V1324   1.899       .  S
O1321      C1846   1.263       .  A
O1322      V1324   1.899       .  S
O1322      C1325   1.265       .  A
V1323      V1844   2.086   1_545  T
V1324      V1843   2.086       .  T
C1325      O1835   1.265       .  A
C1325      C1525   1.483       .  S
C1326      O1841   1.263       .  A
C1326      C1929   1.457       .  S
C1327      O1840   1.264       .  A
C1327      C1542   1.482       .  S
C1328      O1839   1.265       .  A
C1328      C1555   1.481       .  S
O1329      V1337   1.898       .  S
O1329      C1339   1.264       .  A
O1331      C1341   1.266       .  A
O1332      V1337   1.903   1_556  S
O1332      C1342   1.266       .  A
O1333      V1338   1.895   1_556  S
O1333      C1342   1.264       .  A
O1334      C1341   1.264       .  A
O1335      V1338   1.901   1_556  S
O1335      C1340   1.263   1_556  A
V1337      V1338   2.086       .  T
C1339      C1492   1.483       .  S
C1340      C1396   1.457       .  S
C1341      C1512   1.483       .  S
C1342      C1502   1.480       .  S
O1343      V1351   1.902       .  S
O1343      C1353   1.266       .  A
O1344      V1351   1.899       .  S
O1344      C1354   1.263       .  A
O1345      V1351   1.898       .  S
O1345      C1355   1.264       .  A
O1346      V1351   1.895       .  S
O1346      C1356   1.264       .  A
O1347      V1352   1.903       .  S
O1347      C1356   1.266       .  A
O1348      V1352   1.900       .  S
O1348      C1355   1.266       .  A
O1349      V1352   1.898       .  S
O1349      C1354   1.262       .  A
O1350      V1352   1.898       .  S
O1350      C1353   1.264       .  A
V1351      V1352   2.086       .  T
C1353      C1485   1.484       .  S
C1354      C1411   1.457       .  S
C1355      C1505   1.480       .  S
C1356      C1515   1.483       .  S
O1358      V1365   1.900       .  S
O1358      C1368   1.263       .  A
O1359      V1365   1.897       .  S
O1359      C1369   1.264       .  A
O1360      C1370   1.265       .  A
O1361      C1890   1.265       .  A
O1362      V1366   1.899       .  S
O1362      C1889   1.266   1_545  A
O1363      C1628   1.262       .  A
O1364      V1366   1.899       .  S
O1364      C1887   1.264       .  A
V1365      V1886   2.087       .  T
V1366      V1885   2.087   1_545  T
C1367      O1884   1.264       .  A
C1367      C1532   1.483       .  S
C1368      O1623   1.262       .  A
C1368      C1398   1.457       .  S
C1369      O1882   1.266       .  A
C1369      C1472   1.481       .  S
C1370      O1881   1.265       .  A
C1370      C1465   1.482       .  S
O1371      V1379   1.898       .  S
O1371      C1381   1.265       .  A
O1372      V1379   1.899       .  S
O1372      C1382   1.262       .  A
O1373      V1379   1.899       .  S
O1373      C1383   1.265       .  A
O1374      V1379   1.900       .  S
O1374      C1384   1.265       .  A
O1375      V1380   1.896       .  S
O1375      C1904   1.264   1_545  A
O1376      V1380   1.898       .  S
O1376      C1903   1.264   1_545  A
O1377      V1380   1.899       .  S
O1377      C1902   1.263   1_545  A
O1378      V1380   1.900       .  S
O1378      C1901   1.265   1_545  A
V1379      V1900   2.086       .  T
V1380      V1899   2.086   1_545  T
C1381      O1898   1.265       .  A
C1381      C1522   1.483       .  S
C1382      O1897   1.263       .  A
C1382      C1410   1.457       .  S
C1383      O1896   1.264       .  A
C1383      C1462   1.482       .  S
C1384      O1895   1.264       .  A
C1384      C1475   1.481       .  S
O1385      V1913   1.899   1_545  S
O1386      V1393   1.899       .  S
O1387      V1393   1.900       .  S
O1387      C1397   1.263       .  A
O1388      C1398   1.263       .  A
O1390      V1394   1.898       .  S
O1391      V1394   1.900       .  S
O1391      C1396   1.263   1_556  A
O1392      V1914   1.900   1_545  S
O1392      C1395   1.263       .  A
V1393      O1905   1.899       .  S
V1394      O1912   1.900       .  S
C1397      C1832   1.457       .  S
O1399      V1407   1.899       .  S
O1399      C1409   1.263       .  A
O1400      C1410   1.263       .  A
O1401      V1407   1.899       .  S
O1401      C1411   1.263       .  A
O1402      V1927   1.899   1_545  S
O1402      C1412   1.263       .  A
O1403      V1928   1.900   1_545  S
O1403      C1412   1.263       .  A
O1404      V1408   1.899       .  S
O1404      C1411   1.263       .  A
O1405      C1410   1.263       .  A
O1406      V1408   1.899       .  S
O1406      C1409   1.263       .  A
V1407      O1922   1.899       .  S
V1407      V1408   2.090       .  T
V1408      O1923   1.900       .  S
C1409      C1846   1.457       .  S
C1412      C1438   1.458       .  S
O1414      V1421   1.899       .  S
O1414      C1424   1.262       .  A
O1415      V1421   1.898       .  S
O1415      C1425   1.265       .  A
O1416      C1426   1.265       .  A
O1417      C1426   1.265       .  A
O1418      V1422   1.898       .  S
O1418      C1425   1.264       .  A
O1420      V1422   1.899       .  S
O1420      C1423   1.265       .  A
V1421      V1422   2.086       .  T
C1423      C1495   1.483       .  S
C1425      C1452   1.482       .  S
C1426      C1442   1.481       .  S
O1427      V1435   1.900       .  S
O1427      C1437   1.265       .  A
O1428      V1435   1.900       .  S
O1428      C1438   1.263       .  A
O1429      V1435   1.898       .  S
O1429      C1439   1.265       .  A
O1430      V1435   1.897       .  S
O1430      C1440   1.264       .  A
O1431      V1436   1.899       .  S
O1431      C1440   1.265       .  A
O1432      V1436   1.899       .  S
O1432      C1439   1.265       .  A
O1433      V1436   1.899       .  S
O1433      C1438   1.263       .  A
O1434      V1436   1.898       .  S
O1434      C1437   1.264       .  A
V1435      V1436   2.087       .  T
C1437      C1482   1.483       .  S
C1439      C1445   1.481       .  S
C1440      C1455   1.482       .  S
C1441      C1442   1.405       .  A
C1441      C1446   1.397       .  A
C1441      H1448   1.083       .  S
C1442      C1443   1.408       .  A
C1443      C1444   1.398       .  A
C1444      C1445   1.405       .  A
C1445      C1446   1.408       .  A
C1446      F1447   1.357       .  S
C1451      C1452   1.405       .  A
C1451      C1456   1.397       .  A
C1452      C1453   1.409       .  A
C1453      C1454   1.398       .  A
C1453      F1460   1.357       .  S
C1454      C1455   1.405       .  A
C1454      H1459   1.083       .  S
C1455      C1456   1.409       .  A
C1461      C1982   1.406   1_545  A
C1461      C1466   1.399       .  A
C1461      H1468   1.083       .  S
C1462      C1981   1.406       .  A
C1462      C1463   1.408       .  A
C1463      C1464   1.396       .  A
C1463      F1470   1.357       .  S
C1464      C1465   1.406       .  A
C1464      H1469   1.083       .  S
C1465      C1986   1.409       .  A
C1466      C1985   1.409       .  A
C1466      F1467   1.357       .  S
C1471      C1992   1.404   1_545  A
C1471      C1476   1.396       .  A
C1471      H1478   1.083       .  S
C1472      C1991   1.404       .  A
C1472      C1473   1.409       .  A
C1473      C1474   1.398       .  A
C1473      F1480   1.358       .  S
C1474      C1475   1.405       .  A
C1474      H1479   1.083       .  S
C1475      C1996   1.409       .  A
C1476      C1995   1.409   1_545  A
C1476      F1477   1.357       .  S
C1481      C1482   1.405       .  A
C1481      C1486   1.398       .  A
C1482      C1483   1.409       .  A
C1483      C1484   1.398       .  A
C1483      F1490   1.357       .  S
C1484      C1485   1.405       .  A
C1484      H1489   1.083       .  S
C1485      C1486   1.409       .  A
C1491      C1496   1.398       .  A
C1492      C1493   1.409       .  A
C1493      C1494   1.398       .  A
C1493      F1500   1.357       .  S
C1494      H1499   1.083       .  S
C1495      C1496   1.409       .  A
C1501      C1502   1.405       .  A
C1501      C1506   1.400       .  A
C1501      H1508   1.083       .  S
C1502      C1503   1.408       .  A
C1503      C1504   1.396       .  A
C1504      C1505   1.404       .  A
C1505      C1506   1.409       .  A
C1506      F1507   1.358       .  S
C1511      C1512   1.404       .  A
C1511      C1516   1.396       .  A
C1511      H1518   1.083       .  S
C1512      C1513   1.410       .  A
C1513      C1514   1.399       .  A
C1513      F1520   1.358       .  S
C1514      C1515   1.406       .  A
C1514      H1519   1.083       .  S
C1515      C1516   1.409       .  A
C1516      F1517   1.357       .  S
C1521      C1522   1.406       .  A
C1521      C1526   1.398       .  A
C1521      H1528   1.083       .  S
C1522      C2043   1.409       .  A
C1523      C2042   1.409   1_545  A
C1523      C1524   1.398       .  A
C1523      F1530   1.357       .  S
C1524      C2045   1.406   1_545  A
C1524      H1529   1.083       .  S
C1525      C2044   1.406       .  A
C1525      C1526   1.409       .  A
C1526      F1527   1.357       .  S
C1531      C1532   1.405       .  A
C1531      C1536   1.397       .  A
C1531      H1538   1.083       .  S
C1532      C1793   1.409       .  A
C1533      C1792   1.409       .  A
C1533      C1534   1.399       .  A
C1533      F1540   1.357       .  S
C1534      C1795   1.406       .  A
C1534      H1539   1.083       .  S
C1535      C1794   1.406       .  A
C1535      C1536   1.409       .  A
C1536      F1537   1.357       .  S
C1541      C1542   1.405   1_545  A
C1541      C1546   1.397       .  A
C1541      H1548   1.083       .  S
C1542      C2063   1.409       .  A
C1543      C2062   1.409       .  A
C1543      C1544   1.398       .  A
C1543      F1550   1.357       .  S
C1544      C2065   1.406       .  A
C1544      H1549   1.083       .  S
C1545      C2064   1.406       .  A
C1545      C1546   1.408   1_565  A
C1546      F1547   1.357       .  S
C1551      C2072   1.405       .  A
C1551      C1556   1.396       .  A
C1551      H1558   1.083       .  S
C1552      C2071   1.405   1_545  A
C1552      C1553   1.409       .  A
C1553      C1554   1.398       .  A
C1553      F1560   1.357       .  S
C1554      C1555   1.406   1_545  A
C1554      H1559   1.083       .  S
C1555      C2076   1.408       .  A
C1556      C2075   1.408       .  A
C1556      F1557   1.357       .  S
O1561      V1829   1.901       .  S
O1562      V1569   1.900   1_554  S
O1562      C1572   1.263       .  A
O1563      V1569   1.898   1_554  S
O1563      C1573   1.264       .  A
O1564      V1829   1.899       .  S
O1564      C1574   1.265       .  A
O1565      V1830   1.898       .  S
O1566      V1570   1.897       .  S
O1567      V1830   1.898       .  S
O1568      V1570   1.898       .  S
O1568      C1571   1.264   1_564  A
V1569      O1821   1.901       .  S
V1569      O1824   1.899       .  S
V1570      O1825   1.898   1_554  S
V1570      O1827   1.898   1_554  S
C1571      C1795   1.484   1_556  S
C1573      C1812   1.481       .  S
C1574      C1805   1.482       .  S
O1575      V1583   1.899       .  S
O1576      V1583   1.899       .  S
O1576      C1586   1.262       .  A
O1577      V1583   1.898       .  S
O1577      C1587   1.265       .  A
O1578      V1583   1.898       .  S
O1578      C1588   1.265       .  A
O1579      V1584   1.898       .  S
O1580      V1584   1.899       .  S
O1581      V1584   1.899       .  S
O1582      V1584   1.899       .  S
O1582      C1585   1.265       .  A
C1585      C1785   1.483       .  S
C1587      C1802   1.482       .  S
C1588      C1815   1.481       .  S
O1589      V1597   1.898       .  S
O1589      C1599   1.264       .  A
O1590      V1857   1.897       .  S
O1590      C1860   1.262       .  A
O1591      V1857   1.900       .  S
O1591      C1601   1.266       .  A
O1592      V1597   1.903       .  S
O1592      C1602   1.266       .  A
O1593      V1598   1.895       .  S
O1593      C1602   1.264       .  A
O1594      V1858   1.898       .  S
O1594      C1601   1.264       .  A
O1595      V1598   1.901       .  S
O1595      C1600   1.263       .  A
O1596      V1858   1.900       .  S
O1596      C1859   1.265       .  A
V1597      O1850   1.897       .  S
V1597      O1851   1.900       .  S
V1597      V1598   2.086       .  T
V1598      O1854   1.898       .  S
V1598      O1856   1.900       .  S
C1599      O1856   1.265       .  A
C1599      C1752   1.483       .  S
C1600      O1850   1.262       .  A
C1600      C1656   1.457       .  S
C1601      C1772   1.483       .  S
C1602      C1762   1.480       .  S
O1603      V1611   1.902       .  S
O1603      C1613   1.266       .  A
O1604      V1611   1.899       .  S
O1604      C1614   1.263       .  A
O1605      V1611   1.898       .  S
O1605      C1615   1.264       .  A
O1606      V1611   1.895       .  S
O1606      C1616   1.264       .  A
O1607      V1612   1.903       .  S
O1607      C1616   1.266       .  A
O1608      V1612   1.900       .  S
O1608      C1615   1.266       .  A
O1609      V1612   1.898       .  S
O1609      C1614   1.262       .  A
O1610      V1612   1.898       .  S
O1610      C1613   1.264       .  A
V1611      V1612   2.086       .  T
C1613      C1745   1.484       .  S
C1614      C1671   1.457       .  S
C1615      C1765   1.480       .  S
C1616      C1775   1.483       .  S
O1617      V1885   1.900       .  S
O1617      C1887   1.265   1_565  A
O1618      V1625   1.900       .  S
O1618      C1628   1.263   1_565  A
O1619      V1625   1.897   1_554  S
O1619      C1629   1.264       .  A
O1620      V1885   1.896       .  S
O1620      C1630   1.265   1_565  A
O1621      V1886   1.901       .  S
O1622      V1626   1.899       .  S
O1623      V1886   1.898       .  S
O1624      V1626   1.899       .  S
V1625      O1877   1.900       .  S
V1625      O1880   1.896       .  S
V1626      O1881   1.901   1_554  S
V1626      O1883   1.898   1_554  S
C1627      O1877   1.265   1_544  A
C1627      C1792   1.483       .  S
C1628      C1658   1.457   1_545  S
C1629      C1732   1.481       .  S
C1630      C1725   1.482       .  S
O1631      V1639   1.898       .  S
O1631      C1641   1.265       .  A
O1632      V1639   1.899       .  S
O1632      C1642   1.262       .  A
O1633      V1639   1.899       .  S
O1633      C1643   1.265       .  A
O1634      V1639   1.900       .  S
O1634      C1644   1.265       .  A
O1635      V1640   1.896       .  S
O1636      V1640   1.898       .  S
O1637      V1640   1.899       .  S
O1638      V1640   1.900       .  S
C1641      C1782   1.483       .  S
C1642      C1670   1.457       .  S
C1643      C1722   1.482       .  S
C1644      C1735   1.481       .  S
O1645      C1915   1.263   1_554  A
O1646      V1653   1.899       .  S
O1646      C1916   1.263       .  A
O1647      V1653   1.900   1_545  S
O1647      C1657   1.263   1_545  A
O1648      C1658   1.263   1_554  A
O1649      C1918   1.262   1_545  A
O1650      V1654   1.898       .  S
O1650      C1917   1.262       .  A
O1651      V1654   1.900       .  S
O1651      C1656   1.263       .  A
O1652      C1655   1.263       .  A
V1653      V1914   2.090   1_554  T
V1654      V1913   2.090       .  T
C1655      O1905   1.263       .  A
C1655      C1944   1.458       .  S
C1656      O1906   1.263       .  A
C1657      O1910   1.262   1_554  A
C1658      O1909   1.262   1_565  A
O1659      V1667   1.899       .  S
O1659      C1669   1.263       .  A
O1660      C1670   1.263       .  A
O1661      V1667   1.899       .  S
O1661      C1671   1.263       .  A
O1662      C1672   1.263       .  A
O1663      C1672   1.263       .  A
O1664      V1668   1.899       .  S
O1664      C1671   1.263       .  A
O1665      C1670   1.263       .  A
O1666      V1668   1.899       .  S
O1666      C1669   1.263       .  A
V1667      V1668   2.090       .  T
C1672      C1698   1.458       .  S
O1673      V1941   1.899       .  S
O1673      C1943   1.264       .  A
O1674      V1681   1.899   1_554  S
O1674      C1684   1.262   1_554  A
O1675      V1681   1.898   1_554  S
O1675      C1685   1.265       .  A
O1676      V1941   1.899       .  S
O1676      C1686   1.265       .  A
O1677      V1942   1.898       .  S
O1677      C1686   1.265       .  A
O1678      V1682   1.898   1_554  S
O1678      C1685   1.264       .  A
O1679      V1942   1.901       .  S
O1679      C1944   1.263       .  A
O1680      V1682   1.899       .  S
O1680      C1683   1.265       .  A
V1681      O1933   1.899       .  S
V1681      O1936   1.899       .  S
V1681      V1682   2.086       .  T
V1682      O1937   1.898       .  S
V1682      O1939   1.901       .  S
C1683      O1933   1.264       .  A
C1683      C1755   1.483       .  S
C1684      O1939   1.263       .  A
C1684      C1915   1.458       .  S
C1685      C1712   1.482       .  S
C1686      C1702   1.481       .  S
O1687      V1695   1.900       .  S
O1687      C1697   1.265       .  A
O1688      V1695   1.900       .  S
O1688      C1698   1.263       .  A
O1689      V1695   1.898       .  S
O1689      C1699   1.265       .  A
O1690      V1695   1.897       .  S
O1690      C1700   1.264       .  A
O1691      V1696   1.899       .  S
O1691      C1700   1.265       .  A
O1692      V1696   1.899       .  S
O1692      C1699   1.265       .  A
O1693      V1696   1.899       .  S
O1693      C1698   1.263       .  A
O1694      V1696   1.898       .  S
O1694      C1697   1.264       .  A
V1695      V1696   2.087       .  T
C1697      C1742   1.483       .  S
C1699      C1705   1.481       .  S
C1700      C1715   1.482       .  S
C1701      C1702   1.405       .  A
C1701      C1706   1.397       .  A
C1701      H1708   1.083       .  S
C1702      C1703   1.408       .  A
C1703      C1704   1.398       .  A
C1704      C1705   1.405       .  A
C1705      C1706   1.408       .  A
C1706      F1707   1.357       .  S
C1711      C1712   1.405       .  A
C1711      C1716   1.397       .  A
C1712      C1713   1.409       .  A
C1713      C1714   1.398       .  A
C1713      F1720   1.357       .  S
C1714      C1715   1.405       .  A
C1714      H1719   1.083       .  S
C1715      C1716   1.409       .  A
C1721      C1726   1.399       .  A
C1721      H1728   1.083       .  S
C1722      C1723   1.408       .  A
C1723      C1724   1.396       .  A
C1723      F1730   1.357       .  S
C1724      C1725   1.406   1_565  A
C1724      H1729   1.083       .  S
C1726      F1727   1.357       .  S
C1731      C1736   1.396       .  A
C1731      H1738   1.083       .  S
C1732      C1733   1.409       .  A
C1733      C1734   1.398       .  A
C1733      F1740   1.358       .  S
C1734      C1735   1.405       .  A
C1734      H1739   1.083       .  S
C1736      F1737   1.357       .  S
C1741      C1742   1.405       .  A
C1741      C1746   1.398       .  A
C1742      C1743   1.409       .  A
C1743      C1744   1.398       .  A
C1743      F1750   1.357       .  S
C1744      C1745   1.405       .  A
C1744      H1749   1.083       .  S
C1745      C1746   1.409       .  A
C1751      C2012   1.405   1_556  A
C1751      C1756   1.398       .  A
C1752      C2011   1.405       .  A
C1752      C1753   1.409       .  A
C1753      C1754   1.398       .  A
C1753      F1760   1.357       .  S
C1754      C2015   1.405       .  A
C1754      H1759   1.083       .  S
C1755      C2014   1.405   1_556  A
C1755      C1756   1.409       .  A
C1761      C1762   1.405       .  A
C1761      C1766   1.400       .  A
C1761      H1768   1.083       .  S
C1762      C1763   1.408       .  A
C1763      C1764   1.396       .  A
C1764      C1765   1.404       .  A
C1765      C1766   1.409       .  A
C1766      F1767   1.358       .  S
C1771      C1772   1.404       .  A
C1771      C1776   1.396       .  A
C1771      H1778   1.083       .  S
C1772      C1773   1.410       .  A
C1773      C1774   1.399       .  A
C1773      F1780   1.358       .  S
C1774      C1775   1.406       .  A
C1774      H1779   1.083       .  S
C1775      C1776   1.409       .  A
C1776      F1777   1.357       .  S
C1781      C1782   1.406       .  A
C1781      C1786   1.398       .  A
C1781      H1788   1.083       .  S
C1783      C1784   1.398       .  A
C1783      F1790   1.357       .  S
C1784      H1789   1.083       .  S
C1785      C1786   1.409       .  A
C1786      F1787   1.357       .  S
C1791      C1792   1.405   1_566  A
C1791      C1796   1.397       .  A
C1791      H1798   1.083       .  S
C1793      C1794   1.399       .  A
C1793      F1800   1.357       .  S
C1794      H1799   1.083       .  S
C1795      C1796   1.409   1_544  A
C1796      F1797   1.357       .  S
C1801      C1802   1.405       .  A
C1801      C1806   1.397       .  A
C1801      H1808   1.083       .  S
C1803      C1804   1.398       .  A
C1803      F1810   1.357       .  S
C1804      H1809   1.083       .  S
C1805      C1806   1.408       .  A
C1806      F1807   1.357       .  S
C1811      C1816   1.396       .  A
C1811      H1818   1.083       .  S
C1812      C1813   1.409       .  A
C1813      C1814   1.398       .  A
C1813      F1820   1.357       .  S
C1814      C1815   1.406       .  A
C1814      H1819   1.083       .  S
C1816      F1817   1.357       .  S
O1822      V1829   1.900       .  S
O1822      C1832   1.263       .  A
O1823      V1829   1.898       .  S
O1823      C1833   1.264       .  A
O1824      C1834   1.265       .  A
O1826      V1830   1.897       .  S
O1828      V1830   1.898       .  S
O1828      C1831   1.264   1_565  A
C1831      C2055   1.484       .  S
C1833      C2072   1.481       .  S
C1834      C2065   1.482       .  S
O1835      V1843   1.899       .  S
O1836      V1843   1.899       .  S
O1836      C1846   1.262       .  A
O1837      V1843   1.898       .  S
O1837      C1847   1.265       .  A
O1838      V1843   1.898       .  S
O1838      C1848   1.265       .  A
O1839      V1844   1.898       .  S
O1840      V1844   1.899       .  S
O1841      V1844   1.899       .  S
O1842      V1844   1.899       .  S
O1842      C1845   1.265       .  A
C1845      C2045   1.483       .  S
C1847      C2062   1.482       .  S
C1848      C2075   1.481       .  S
O1849      V1857   1.898       .  S
O1849      C1859   1.264       .  A
O1851      C1861   1.266       .  A
O1852      V1857   1.903   1_556  S
O1852      C1862   1.266       .  A
O1853      V1858   1.895   1_556  S
O1853      C1862   1.264       .  A
O1854      C1861   1.264       .  A
O1855      V1858   1.901   1_556  S
O1855      C1860   1.263   1_556  A
V1857      V1858   2.086       .  T
C1859      C2012   1.483       .  S
C1860      C1916   1.457       .  S
C1861      C2032   1.483       .  S
C1862      C2022   1.480       .  S
O1863      V1871   1.902       .  S
O1863      C1873   1.266       .  A
O1864      V1871   1.899       .  S
O1864      C1874   1.263       .  A
O1865      V1871   1.898       .  S
O1865      C1875   1.264       .  A
O1866      V1871   1.895       .  S
O1866      C1876   1.264       .  A
O1867      V1872   1.903       .  S
O1867      C1876   1.266       .  A
O1868      V1872   1.900       .  S
O1868      C1875   1.266       .  A
O1869      V1872   1.898       .  S
O1869      C1874   1.262       .  A
O1870      V1872   1.898       .  S
O1870      C1873   1.264       .  A
V1871      V1872   2.086       .  T
C1873      C2005   1.484       .  S
C1874      C1931   1.457       .  S
C1875      C2025   1.480       .  S
C1876      C2035   1.483       .  S
O1878      V1885   1.900       .  S
O1878      C1888   1.263   1_565  A
O1879      V1885   1.897       .  S
O1879      C1889   1.264       .  A
O1880      C1890   1.265   1_565  A
O1882      V1886   1.899       .  S
O1884      V1886   1.899       .  S
C1887      C2052   1.483       .  S
C1888      C1918   1.457   1_545  S
C1889      C1992   1.481       .  S
C1890      C1985   1.482       .  S
O1891      V1899   1.898       .  S
O1891      C1901   1.265       .  A
O1892      V1899   1.899       .  S
O1892      C1902   1.262       .  A
O1893      V1899   1.899       .  S
O1893      C1903   1.265       .  A
O1894      V1899   1.900       .  S
O1894      C1904   1.265       .  A
O1895      V1900   1.896       .  S
O1896      V1900   1.898       .  S
O1897      V1900   1.899       .  S
O1898      V1900   1.900       .  S
C1901      C2042   1.483       .  S
C1902      C1930   1.457       .  S
C1903      C1982   1.482       .  S
C1904      C1995   1.481       .  S
O1906      V1913   1.899       .  S
O1907      V1913   1.900   1_545  S
O1907      C1917   1.263   1_545  A
O1908      C1918   1.263       .  A
O1910      V1914   1.898       .  S
O1911      V1914   1.900       .  S
O1911      C1916   1.263   1_556  A
O1912      C1915   1.263       .  A
O1919      V1927   1.899       .  S
O1919      C1929   1.263       .  A
O1920      C1930   1.263       .  A
O1921      V1927   1.899       .  S
O1921      C1931   1.263       .  A
O1922      C1932   1.263       .  A
O1923      C1932   1.263       .  A
O1924      V1928   1.899       .  S
O1924      C1931   1.263       .  A
O1925      C1930   1.263       .  A
O1926      V1928   1.899       .  S
O1926      C1929   1.263       .  A
V1927      V1928   2.090       .  T
C1932      C1958   1.458       .  S
O1934      V1941   1.899       .  S
O1934      C1944   1.262       .  A
O1935      V1941   1.898       .  S
O1935      C1945   1.265       .  A
O1936      C1946   1.265       .  A
O1937      C1946   1.265       .  A
O1938      V1942   1.898       .  S
O1938      C1945   1.264       .  A
O1940      V1942   1.899       .  S
O1940      C1943   1.265       .  A
V1941      V1942   2.086       .  T
C1943      C2015   1.483       .  S
C1945      C1972   1.482       .  S
C1946      C1962   1.481       .  S
O1947      V1955   1.900       .  S
O1947      C1957   1.265       .  A
O1948      V1955   1.900       .  S
O1948      C1958   1.263       .  A
O1949      V1955   1.898       .  S
O1949      C1959   1.265       .  A
O1950      V1955   1.897       .  S
O1950      C1960   1.264       .  A
O1951      V1956   1.899       .  S
O1951      C1960   1.265       .  A
O1952      V1956   1.899       .  S
O1952      C1959   1.265       .  A
O1953      V1956   1.899       .  S
O1953      C1958   1.263       .  A
O1954      V1956   1.898       .  S
O1954      C1957   1.264       .  A
V1955      V1956   2.087       .  T
C1957      C2002   1.483       .  S
C1959      C1965   1.481       .  S
C1960      C1975   1.482       .  S
C1961      C1962   1.405       .  A
C1961      C1966   1.397       .  A
C1961      H1968   1.083       .  S
C1962      C1963   1.408       .  A
C1963      C1964   1.398       .  A
C1964      C1965   1.405       .  A
C1965      C1966   1.408       .  A
C1966      F1967   1.357       .  S
C1971      C1972   1.405       .  A
C1971      C1976   1.397       .  A
C1972      C1973   1.409       .  A
C1973      C1974   1.398       .  A
C1973      F1980   1.357       .  S
C1974      C1975   1.405       .  A
C1974      H1979   1.083       .  S
C1975      C1976   1.409       .  A
C1981      C1986   1.399       .  A
C1981      H1988   1.083       .  S
C1982      C1983   1.408       .  A
C1983      C1984   1.396       .  A
C1983      F1990   1.357       .  S
C1984      C1985   1.406   1_565  A
C1984      H1989   1.083       .  S
C1986      F1987   1.357       .  S
C1991      C1996   1.396       .  A
C1991      H1998   1.083       .  S
C1992      C1993   1.409       .  A
C1993      C1994   1.398       .  A
C1993      F2000   1.358       .  S
C1994      C1995   1.405       .  A
C1994      H1999   1.083       .  S
C1996      F1997   1.357       .  S
C2001      C2002   1.405       .  A
C2001      C2006   1.398       .  A
C2002      C2003   1.409       .  A
C2003      C2004   1.398       .  A
C2003      F2010   1.357       .  S
C2004      C2005   1.405       .  A
C2004      H2009   1.083       .  S
C2005      C2006   1.409       .  A
C2011      C2016   1.398       .  A
C2012      C2013   1.409       .  A
C2013      C2014   1.398       .  A
C2013      F2020   1.357       .  S
C2014      H2019   1.083       .  S
C2015      C2016   1.409       .  A
C2021      C2022   1.405       .  A
C2021      C2026   1.400       .  A
C2021      H2028   1.083       .  S
C2022      C2023   1.408       .  A
C2023      C2024   1.396       .  A
C2024      C2025   1.404       .  A
C2025      C2026   1.409       .  A
C2026      F2027   1.358       .  S
C2031      C2032   1.404       .  A
C2031      C2036   1.396       .  A
C2031      H2038   1.083       .  S
C2032      C2033   1.410       .  A
C2033      C2034   1.399       .  A
C2033      F2040   1.358       .  S
C2034      C2035   1.406       .  A
C2034      H2039   1.083       .  S
C2035      C2036   1.409       .  A
C2036      F2037   1.357       .  S
C2041      C2042   1.406       .  A
C2041      C2046   1.398       .  A
C2041      H2048   1.083       .  S
C2043      C2044   1.398       .  A
C2043      F2050   1.357       .  S
C2044      H2049   1.083       .  S
C2045      C2046   1.409       .  A
C2046      F2047   1.357       .  S
C2051      C2052   1.405   1_565  A
C2051      C2056   1.397       .  A
C2051      H2058   1.083       .  S
C2053      C2054   1.399       .  A
C2053      F2060   1.357       .  S
C2054      H2059   1.083       .  S
C2055      C2056   1.409   1_545  A
C2056      F2057   1.357       .  S
C2061      C2062   1.405       .  A
C2061      C2066   1.397       .  A
C2061      H2068   1.083       .  S
C2063      C2064   1.398       .  A
C2063      F2070   1.357       .  S
C2064      H2069   1.083       .  S
C2065      C2066   1.408       .  A
C2066      F2067   1.357       .  S
C2071      C2076   1.396       .  A
C2071      H2078   1.083       .  S
C2072      C2073   1.409       .  A
C2073      C2074   1.398       .  A
C2073      F2080   1.357       .  S
C2074      C2075   1.406       .  A
C2074      H2079   1.083       .  S
C2076      F2077   1.357       .  S
