geometry optimzed in LAMMPS
_audit_creation_date              2020-11-30 
_audit_creation_method            'lammps2cif' 
_symmetry_space_group_name_H-M    'P1' 
_symmetry_Int_Tables_number       1 
_symmetry_cell_setting            triclinic 
loop_ 
_symmetry_equiv_pos_as_xyz 
  x,y,z 
_cell_length_a                    44.32456937 
_cell_length_b                    44.70916188305948 
_cell_length_c                    44.203011003759876 
_cell_angle_alpha                 91.25028786817629 
_cell_angle_beta                  89.6944242130016 
_cell_angle_gamma                 91.37583078595806 
loop_ 
_atom_site_label 
_atom_site_type_symbol 
_atom_site_fract_x 
_atom_site_fract_y 
_atom_site_fract_z 
_atom_site_charge 
C1          C  0.59533776  0.87828611  0.69290069     0.82100
N2          N  0.56736076  0.86543491  0.69092490    -0.76200
C3          C  0.54249175  0.88217980  0.69481838     0.84500
N4          N  0.54559964  0.91204616  0.70073970    -0.76200
C5          C  0.57358464  0.92511488  0.70271955     0.84600
N6          N  0.59849571  0.90818715  0.69878333    -0.77900
C7          C  0.59693937  0.11894288  0.75302597     0.82100
N8          N  0.60038763  0.08995366  0.74377900    -0.76200
C9          C  0.57587981  0.07103020  0.74189806     0.84500
N10         N  0.54806099  0.08121710  0.74909009    -0.76200
C11         C  0.54458662  0.11010273  0.75826183     0.84600
N12         N  0.56901767  0.12891142  0.76014547    -0.77900
C13         C  0.90369386  0.77343007  0.54173129     0.82100
N14         N  0.89682322  0.77008420  0.51204087    -0.76200
C15         C  0.91891692  0.76722224  0.49105147     0.84500
N16         N  0.94825906  0.76742400  0.49979114    -0.76200
C17         C  0.95541917  0.77075065  0.52959686     0.84600
N18         N  0.93304950  0.77356276  0.55067570    -0.77900
C19         C  0.15387873  0.76586797  0.56485733     0.82100
N20         N  0.12351802  0.76790097  0.56925877    -0.76200
C21         C  0.10427508  0.76090860  0.54604836     0.84500
N22         N  0.11548955  0.75240648  0.51864012    -0.76200
C23         C  0.14567291  0.75039422  0.51435118     0.84600
N24         N  0.16477933  0.75736799  0.53735300    -0.77900
C25         C  0.65386822  0.74579491  0.37850489     0.82100
N26         N  0.66245111  0.74733238  0.40787257    -0.76200
C27         C  0.64152421  0.74622844  0.43020673     0.84500
N28         N  0.61185241  0.74337030  0.42320866    -0.76200
C29         C  0.60307463  0.74173786  0.39382638     0.84600
N30         N  0.62411847  0.74286747  0.37132199    -0.77900
C31         C  0.40322402  0.74552569  0.39576245     0.82100
N32         N  0.43179854  0.74295760  0.38474342    -0.76200
C33         C  0.45512795  0.73963280  0.40421304     0.84500
N34         N  0.44985823  0.73921820  0.43451009    -0.76200
C35         C  0.42135588  0.74178359  0.44537526     0.84600
N36         N  0.39817587  0.74507622  0.42600550    -0.77900
C37         C  0.76103852  0.58873273  0.83674974     0.82100
N38         N  0.75894975  0.56084770  0.82418426    -0.76200
C39         C  0.76130842  0.53659094  0.84169766     0.84500
N40         N  0.76556093  0.54016256  0.87189526    -0.76200
C41         C  0.76766716  0.56803771  0.88456821     0.84600
N42         N  0.76532244  0.59245191  0.86702221    -0.77900
C43         C  0.79150083  0.56808957  0.08345063     0.82100
N44         N  0.78862212  0.57562762  0.05405437    -0.76200
C45         C  0.77990008  0.55451149  0.03313176     0.84500
N46         N  0.77425336  0.52586847  0.04157759    -0.76200
C47         C  0.77703692  0.51843584  0.07101345     0.84600
N48         N  0.78579542  0.53952501  0.09184507    -0.77900
O49         O  0.68021924  0.25520448  0.73189216    -0.79000
O50         O  0.71583087  0.38809180  0.77505032    -0.63700
O51         O  0.71556771  0.30540238  0.75117226    -1.10300
C52         C  0.68114571  0.29495436  0.85383773     1.07800
O53         O  0.74157104  0.37799995  0.81613280    -0.76900
O54         O  0.74988594  0.32319007  0.83818627    -0.64500
Ni55       Ni  0.69408278  0.29292203  0.71515201     1.34900
C56         C  0.75737214  0.29956639  0.82400266     0.86600
O57         O  0.73086555  0.36018242  0.72376741    -0.77500
O58         O  0.70602817  0.32839970  0.69255734    -0.87800
C59         C  0.73216059  0.39650155  0.79720244     0.86200
O60         O  0.65719306  0.31034152  0.72780686    -0.66000
O61         O  0.69174790  0.32134287  0.85885671    -0.85200
C62         C  0.65287647  0.33640583  0.73857327     0.87000
C63         C  0.72206555  0.35208455  0.69750755     1.08500
H64         H  0.67814583  0.33862387  0.80056154     0.40400
O65         O  0.69914313  0.33359493  0.79930933    -1.07900
O66         O  0.74097211  0.28647836  0.80386600    -0.64600
Ni67       Ni  0.70007366  0.29211768  0.78978788     1.26300
O68         O  0.67401413  0.35368950  0.74855201    -0.64800
O69         O  0.68377443  0.28063293  0.82863910    -0.77100
C70         C  0.68567289  0.23995544  0.75517700     0.86400
O71         O  0.69934990  0.25077542  0.77820045    -0.64300
Ni72       Ni  0.71628169  0.34883444  0.83607697     1.27400
Ni73       Ni  0.71503029  0.34723889  0.76176579     1.26100
H74         H  0.73625261  0.29959718  0.74876564     0.40900
O75         O  0.34755452  0.78941523  0.57868925    -0.79000
O76         O  0.30740227  0.83618503  0.70622250    -0.63700
O77         O  0.35290676  0.82113025  0.63447251    -1.10300
C78         C  0.38020119  0.73166879  0.68033562     1.07800
O79         O  0.33964450  0.81658371  0.73847369    -0.76900
O80         O  0.39295381  0.80770761  0.70986952    -0.64500
Ni81       Ni  0.33623541  0.82782975  0.59538352     1.34900
C82         C  0.40884997  0.80878497  0.68595912     0.86600
O83         O  0.32046140  0.86925722  0.65839026    -0.77500
O84         O  0.32423541  0.86734276  0.60759263    -0.87800
C85         C  0.31728736  0.83275149  0.73270447     0.86200
O86         O  0.29664958  0.81196518  0.60288348    -0.66000
O87         O  0.37855715  0.74708589  0.70480142    -0.85200
C88         C  0.28121727  0.80859585  0.62683996     0.87000
C89         C  0.31893413  0.88113891  0.63248430     1.08500
H90         H  0.32140645  0.77606813  0.67935375     0.40400
O91         O  0.33936335  0.78885926  0.68016356    -1.07900
O92         O  0.40086493  0.79648869  0.66090698    -0.64600
Ni93       Ni  0.36291050  0.78123484  0.64442042     1.26300
O94         O  0.29130541  0.81436219  0.65327200    -0.64800
O95         O  0.37200160  0.74118129  0.65490750    -0.77100
C96         C  0.37244658  0.77645892  0.58210080     0.86400
O97         O  0.38479556  0.77495208  0.60772105    -0.64300
Ni98       Ni  0.35848515  0.78292762  0.71854281     1.27400
Ni99       Ni  0.32933625  0.82906650  0.66977970     1.26100
H100        H  0.37084306  0.83378211  0.63583997     0.40900
C101        C  0.11207232  0.62111644  0.24196918     0.82100
N102        N  0.08361563  0.63036995  0.23722432    -0.76200
C103        C  0.06130083  0.61032794  0.22996375     0.84500
N104        N  0.06733344  0.58078923  0.22773477    -0.76200
C105        C  0.09575996  0.57128384  0.23245848     0.84600
N106        N  0.11823272  0.59145373  0.23974352    -0.77900
C107        C  0.10051041  0.37305275  0.21182200     0.82100
N108        N  0.07092025  0.36498489  0.20955387    -0.76200
C109        C  0.04939872  0.38588595  0.21214469     0.84500
N110        N  0.05749531  0.41508046  0.21686735    -0.76200
C111        C  0.08712879  0.42331106  0.21919586     0.84600
N112        N  0.10871068  0.40227059  0.21657482    -0.77900
O113        O  0.92811390  0.69422712  0.25653198    -0.79000
O114        O  0.80338609  0.73074454  0.30554793    -0.63700
O115        O  0.87616261  0.68843725  0.29265940    -1.10300
C116        C  0.82476708  0.65006823  0.20575242     1.07800
O117        O  0.77612363  0.68930857  0.29690311    -0.76900
O118        O  0.80099299  0.63749884  0.27965995    -0.64500
Ni119      Ni  0.91479675  0.70785221  0.29593225     1.34900
C120        C  0.82591050  0.62475978  0.28323211     0.86600
O121        O  0.85427265  0.72664038  0.33838768    -0.77500
O122        O  0.90489441  0.72235588  0.33580599    -0.87800
C123        C  0.77835597  0.71643391  0.30576737     0.86200
O124        O  0.90508367  0.74531025  0.27924369    -0.66000
O125        O  0.80055972  0.65515946  0.22043510    -0.85200
C126        C  0.88053716  0.75823361  0.27432079     0.87000
C127        C  0.88071024  0.72931710  0.34970226     1.08500
H128        H  0.82800426  0.70936858  0.24674631     0.40400
O129        O  0.82848961  0.69366751  0.26144063    -1.07900
O130        O  0.85105071  0.63546504  0.27393607    -0.64600
Ni131      Ni  0.86432579  0.67177829  0.25422277     1.26300
O132        O  0.85465500  0.74679712  0.28011348    -0.64800
O133        O  0.85118315  0.65594232  0.21575907    -0.77100
C134        C  0.92639310  0.66723403  0.24711756     0.86400
O135        O  0.90174925  0.65237370  0.24799526    -0.64300
Ni136      Ni  0.79033850  0.67282871  0.25906808     1.27400
Ni137      Ni  0.84065037  0.71074386  0.29976689     1.26100
H138        H  0.87607151  0.67265250  0.30724355     0.40900
C139        C  0.87641283  0.26480280  0.90314824     0.82100
N140        N  0.90585609  0.25888171  0.89700360    -0.76200
C141        C  0.92578831  0.25627721  0.92012069     0.84500
N142        N  0.91621801  0.25972674  0.94922913    -0.76200
C143        C  0.88690117  0.26567918  0.95536297     0.84600
N144        N  0.86710348  0.26822395  0.93231359    -0.77900
C145        C  0.12271452  0.21895356  0.90474096     0.82100
N146        N  0.09334844  0.22436737  0.89828780    -0.76200
C147        C  0.07327099  0.22940877  0.92119416     0.84500
N148        N  0.08264191  0.22898400  0.95042060    -0.76200
C149        C  0.11191589  0.22364916  0.95685952     0.84600
N150        N  0.13183399  0.21861029  0.93400690    -0.77900
O151        O  0.81062867  0.39263653  0.15478514    -0.79000
O152        O  0.86051686  0.27435529  0.20163632    -0.63700
O153        O  0.84401361  0.34023591  0.15131677    -1.10300
C154        C  0.75539196  0.28562515  0.12473581     1.07800
O155        O  0.84565824  0.24035200  0.16683454    -0.76900
O156        O  0.83124420  0.26227781  0.11255400    -0.64500
Ni157      Ni  0.85092820  0.38071838  0.16421424     1.34900
C158        C  0.83140862  0.28491619  0.09578543     0.86600
O159        O  0.89238374  0.32391114  0.18756780    -0.77500
O160        O  0.89190704  0.37226861  0.17405543    -0.87800
C161        C  0.86038194  0.24787794  0.19053079     0.86200
O162        O  0.83917137  0.37695117  0.20547637    -0.66000
O163        O  0.77124113  0.26278277  0.12939901    -0.85200
C164        C  0.83350122  0.35504918  0.22248436     0.87000
C165        C  0.90512860  0.34953504  0.18406893     1.08500
H166        H  0.79970563  0.29485149  0.18358029     0.40400
O167        O  0.81291766  0.29399560  0.16618020    -1.07900
O168        O  0.81977744  0.30969232  0.10351793    -0.64600
Ni169      Ni  0.80406489  0.32689358  0.14083156     1.26300
O170        O  0.83611515  0.32769460  0.21401381    -0.64800
O171        O  0.76427892  0.31232441  0.13085152    -0.77100
C172        C  0.79765224  0.38753294  0.12962196     0.86400
O173        O  0.79644199  0.36150826  0.11773855    -0.64300
Ni174      Ni  0.80908616  0.25435070  0.14876568     1.27400
Ni175      Ni  0.85257403  0.30847202  0.17765098     1.26100
H176        H  0.85684706  0.33757882  0.13382191     0.40900
C177        C  0.43636863  0.21826946  0.03486646     0.82100
N178        N  0.41780216  0.21305205  0.05897587    -0.76200
C179        C  0.38782241  0.20716211  0.05440563     0.84500
N180        N  0.37663045  0.20644679  0.02582556    -0.76200
C181        C  0.39511218  0.21162648  0.00184279     0.84600
N182        N  0.42490662  0.21751507  0.00643114    -0.77900
C183        C  0.63466376  0.25829272  0.03770194     0.82100
N184        N  0.60549391  0.25149622  0.04514813    -0.76200
C185        C  0.58452085  0.24699077  0.02299641     0.84500
N186        N  0.59279949  0.24942963  0.99344666    -0.76200
C187        C  0.62192648  0.25617148  0.98600986     0.84600
N188        N  0.64271874  0.26065362  0.00816669    -0.77900
C189        C  0.25992352  0.91544584  0.84544999     0.82100
N190        N  0.25351763  0.90725973  0.87425881    -0.76200
C191        C  0.24487798  0.92821883  0.89510165     0.84500
N192        N  0.24304028  0.95731008  0.88717561    -0.76200
C193        C  0.24939632  0.96540475  0.85838882     0.84600
N194        N  0.25800547  0.94449242  0.83765887    -0.77900
C195        C  0.22759749  0.90611965  0.09423386     0.82100
N196        N  0.22765298  0.89932755  0.06406323    -0.76200
C197        C  0.23118072  0.92173570  0.04383286     0.84500
N198        N  0.23473039  0.95056151  0.05383998    -0.76200
C199        C  0.23474647  0.95703629  0.08394004     0.84600
N200        N  0.23113809  0.93485968  0.10394964    -0.77900
O201        O  0.26486856  0.21906533  0.83286039    -0.79000
O202        O  0.39378360  0.17369774  0.79690352    -0.63700
O203        O  0.31286730  0.20166797  0.79385348    -1.10300
C204        C  0.28909185  0.09917912  0.81285140     1.07800
O205        O  0.38267447  0.13540558  0.76614272    -0.76900
O206        O  0.32549762  0.12213983  0.74821283    -0.64500
Ni207      Ni  0.30185044  0.23665615  0.81710243     1.34900
C208        C  0.30221469  0.13679093  0.74219838     0.86600
O209        O  0.37115497  0.22697706  0.78543062    -0.77500
O210        O  0.33687035  0.25913747  0.80326960    -0.87800
C211        C  0.40190541  0.15208751  0.77998884     0.86200
O212        O  0.32138327  0.22671214  0.85383364    -0.66000
O213        O  0.31480491  0.09348225  0.80138193    -0.85200
C214        C  0.34469593  0.21179031  0.85894894     0.87000
C215        C  0.36210896  0.25335561  0.79080425     1.08500
H216        H  0.33967240  0.14753940  0.82697407     0.40400
O217        O  0.33557316  0.15131835  0.80602115    -1.07900
O218        O  0.28880064  0.15360208  0.76147187    -0.64600
Ni219      Ni  0.29475860  0.16371018  0.80419213     1.26300
O220        O  0.35929971  0.19782868  0.83848395    -0.64800
O221        O  0.27833297  0.12531410  0.81535161    -0.77100
C222        C  0.24637195  0.19925561  0.82254272     0.86400
O223        O  0.25446607  0.17833697  0.80460616    -0.64300
Ni224      Ni  0.34775010  0.11622779  0.78429872     1.27400
Ni225      Ni  0.35384343  0.18888118  0.79586835     1.26100
H226        H  0.30850493  0.20564820  0.77290503     0.40900
C227        C  0.25459699  0.06035928  0.35826384     0.82100
N228        N  0.25821970  0.06835888  0.38803407    -0.76200
C229        C  0.25804618  0.04685554  0.40954803     0.84500
N230        N  0.25419848  0.01752529  0.40107822    -0.76200
C231        C  0.25054518  0.00966447  0.37140370     0.84600
N232        N  0.25075268  0.03110285  0.35023396    -0.77900
C233        C  0.27708820  0.07204826  0.61120724     0.82100
N234        N  0.27313099  0.07793496  0.58128753    -0.76200
C235        C  0.27460802  0.05522640  0.56012725     0.84500
N236        N  0.28015843  0.02697128  0.56906329    -0.76200
C237        C  0.28411441  0.02118740  0.59878616     0.84600
N238        N  0.28260471  0.04371925  0.61967514    -0.77900
O239        O  0.19864951  0.18942545  0.08707138    -0.79000
O240        O  0.24244530  0.14054128  0.21060109    -0.63700
O241        O  0.19544434  0.15631123  0.14044413    -1.10300
C242        C  0.17436372  0.24727794  0.19294708     1.07800
O243        O  0.20666710  0.15662843  0.24194268    -0.76900
O244        O  0.15515783  0.17772177  0.22062496    -0.64500
Ni245      Ni  0.21049928  0.15067421  0.10030942     1.34900
C246        C  0.13942457  0.17298865  0.19709178     0.86600
O247        O  0.22870090  0.10823483  0.16016286    -0.77500
O248        O  0.22264794  0.11116080  0.10963084    -0.87800
C249        C  0.23026837  0.14180341  0.23672065     0.86200
O250        O  0.25023084  0.16630893  0.10704722    -0.66000
O251        O  0.18143875  0.23399466  0.21699064    -0.85200
C252        C  0.26675276  0.16932889  0.13025936     0.87000
C253        C  0.22873886  0.09693761  0.13338740     1.08500
H254        H  0.22803571  0.20086834  0.18521539     0.40400
O255        O  0.21019045  0.18805384  0.18695071    -1.07900
O256        O  0.14825542  0.17938524  0.17057597    -0.64600
Ni257      Ni  0.18484247  0.19572670  0.15304879     1.26300
O258        O  0.25791079  0.16308072  0.15696336    -0.64800
O259        O  0.17497114  0.23525317  0.16661550    -0.77100
C260        C  0.17275641  0.20026799  0.09132018     0.86400
O261        O  0.16121895  0.20179018  0.11758896    -0.64300
Ni262      Ni  0.19455457  0.19471982  0.22703199     1.27400
Ni263      Ni  0.22019443  0.14811322  0.17437212     1.26100
H264        H  0.17781426  0.14334820  0.14180221     0.40900
C265        C  0.94454104  0.88504619  0.24237873     0.82100
N266        N  0.93803783  0.91439583  0.23915822    -0.76200
C267        C  0.96083140  0.93531821  0.23788284     0.84500
N268        N  0.98998357  0.92682636  0.24007446    -0.76200
C269        C  0.99642043  0.89753842  0.24330275     0.84600
N270        N  0.97368439  0.87678329  0.24456601    -0.77900
C271        C  0.94795779  0.13384340  0.22264034     0.82100
N272        N  0.97754359  0.14149559  0.21912637    -0.76200
C273        C  0.99886319  0.12029330  0.21937595     0.84500
N274        N  0.99062313  0.09120216  0.22303196    -0.76200
C275        C  0.96108130  0.08322092  0.22654988     0.84600
N276        N  0.93959845  0.10456532  0.22624650    -0.77900
O277        O  0.12214837  0.81375906  0.29255712    -0.79000
O278        O  0.25291824  0.76954430  0.32572815    -0.63700
O279        O  0.18010018  0.81334792  0.31998107    -1.10300
C280        C  0.22455312  0.84393955  0.22712483     1.07800
O281        O  0.28126667  0.80893830  0.31319512    -0.76900
O282        O  0.25697660  0.86066674  0.29719813    -0.64500
Ni283      Ni  0.14161992  0.79357570  0.32520710     1.34900
C284        C  0.23329114  0.87405598  0.30535753     0.86600
O285        O  0.20597944  0.77688833  0.36278820    -0.77500
O286        O  0.15552874  0.77215906  0.35966176    -0.87800
C287        C  0.27825374  0.78326453  0.32471773     0.86200
O288        O  0.14951233  0.76062759  0.29855573    -0.66000
O289        O  0.25001064  0.83801873  0.23851590    -0.85200
C290        C  0.17304600  0.74528857  0.29534409     0.87000
C291        C  0.18041319  0.76883793  0.37329683     1.08500
H292        H  0.22258438  0.78837443  0.26929199     0.40400
O293        O  0.22463920  0.80477962  0.28387015    -1.07900
O294        O  0.20680240  0.86396989  0.29993624    -0.64600
Ni295      Ni  0.18951107  0.82837921  0.28082589     1.26300
O296        O  0.19885532  0.75357292  0.30545721    -0.64800
O297        O  0.19957203  0.84201326  0.24128306    -0.77100
C298        C  0.12725100  0.83901768  0.28065781     0.86400
O299        O  0.15349010  0.85054421  0.27862358    -0.64300
Ni300      Ni  0.26347735  0.82320788  0.27662187     1.27400
Ni301      Ni  0.21581339  0.79030219  0.32324963     1.26100
H302        H  0.18128227  0.82944415  0.33488195     0.40900
C303        C  0.45764028  0.36581004  0.75414693     0.82100
N304        N  0.48684421  0.35750078  0.75175911    -0.76200
C305        C  0.50869968  0.37784427  0.74434948     0.84500
N306        N  0.50136799  0.40657382  0.73934535    -0.76200
C307        C  0.47225638  0.41510880  0.74167821     0.84600
N308        N  0.45029065  0.39469847  0.74911838    -0.77900
C309        C  0.45862654  0.60880639  0.69996289     0.82100
N310        N  0.48798269  0.61802730  0.69951578    -0.76200
C311        C  0.51013398  0.59867840  0.70545775     0.84500
N312        N  0.50294878  0.56981912  0.71183079    -0.76200
C313        C  0.47358392  0.56032492  0.71236817     0.84600
N314        N  0.45132211  0.57985862  0.70642840    -0.77900
C315        C  0.80839541  0.43880642  0.34303826     0.82100
N316        N  0.80278852  0.43591548  0.37324276    -0.76200
C317        C  0.80126492  0.46078484  0.39164058     0.84500
N318        N  0.80540731  0.48838763  0.37967707    -0.76200
C319        C  0.81102684  0.49129812  0.34961030     0.84600
N320        N  0.81248370  0.46650832  0.33144319    -0.77900
C321        C  0.75656658  0.45225106  0.58964557     0.82100
N322        N  0.76407871  0.44633327  0.56016942    -0.76200
C323        C  0.77031042  0.46924910  0.54102509     0.84500
N324        N  0.76889441  0.49804102  0.55149199    -0.76200
C325        C  0.76141106  0.50404830  0.58083686     0.84600
N326        N  0.75524553  0.48112962  0.59978150    -0.77900
O327        O  0.63445544  0.69253559  0.66710291    -0.79000
O328        O  0.75402569  0.74966350  0.61757154    -0.63700
O329        O  0.68730938  0.69579662  0.63137623    -1.10300
C330        C  0.74293314  0.67177155  0.71840900     1.07800
O331        O  0.78667442  0.71426548  0.62698364    -0.76900
O332        O  0.76870588  0.65952070  0.64462900    -0.64500
Ni333      Ni  0.64652558  0.70821557  0.62843902     1.34900
C334        C  0.74572268  0.64241580  0.64101857     0.86600
O335        O  0.70439968  0.73476900  0.58544352    -0.77500
O336        O  0.65454132  0.72398071  0.58905887    -0.87800
C337        C  0.78057039  0.73965750  0.61663790     0.86200
O338        O  0.65156867  0.74677805  0.64708586    -0.66000
O339        O  0.76633351  0.68032923  0.70382426    -0.85200
C340        C  0.67411139  0.76430794  0.65119223     0.87000
C341        C  0.67779464  0.73320551  0.57461913     1.08500
H342        H  0.73204906  0.72750239  0.67704078     0.40400
O343        O  0.73377073  0.71111761  0.66241796    -1.07900
O344        O  0.71944703  0.64910117  0.65014992    -0.64600
Ni345      Ni  0.70125607  0.68335216  0.66973305     1.26300
O346        O  0.70096758  0.75795477  0.64349901    -0.64800
O347        O  0.71620223  0.67211020  0.70815198    -0.77100
C348        C  0.64053702  0.66688712  0.67683299     0.86400
O349        O  0.66715967  0.65728452  0.67603606    -0.64300
Ni350      Ni  0.77431034  0.69748354  0.66495735     1.27400
Ni351      Ni  0.71964888  0.72374425  0.62404771     1.26100
H352        H  0.68935557  0.67952748  0.61686879     0.40900
C353        C  0.75926592  0.53466361  0.59179700    -0.16700
C354        C  0.75671560  0.55994382  0.60180442     0.07400
C355        C  0.75307958  0.58915386  0.61450229     0.09300
C356        C  0.74971612  0.61365323  0.62614327    -0.17500
C357        C  0.79520153  0.45828820  0.42385204    -0.16700
C358        C  0.78999475  0.45836407  0.45090362     0.07400
C359        C  0.78357074  0.46027931  0.48260829     0.09300
C360        C  0.77774242  0.46335781  0.50940702    -0.17500
C361        C  0.54109779  0.60892444  0.70434396    -0.16700
C362        C  0.56616123  0.61972063  0.70171806     0.07400
C363        C  0.59412644  0.63451201  0.69619815     0.09300
C364        C  0.61643407  0.64864690  0.68893184    -0.17500
C365        C  0.46525016  0.44589233  0.73628959    -0.16700
C366        C  0.46288019  0.47222162  0.73119796     0.07400
C367        C  0.46343157  0.50321127  0.72478117     0.09300
C368        C  0.46649852  0.52948384  0.71911951    -0.17500
C369        C  0.10213319  0.85467333  0.26868626    -0.16700
C370        C  0.07965754  0.86665055  0.26019838     0.07400
C371        C  0.05186393  0.87918609  0.25221990     0.09300
C372        C  0.02706896  0.88846871  0.24717265    -0.17500
C373        C  0.95436206  0.96663998  0.23523237    -0.16700
C374        C  0.95126866  0.99337245  0.23347698     0.07400
C375        C  0.95056947  0.02501193  0.23157087     0.09300
C376        C  0.95312753  0.05192490  0.22964448    -0.17500
C377        C  0.10986767  0.15967198  0.20081177    -0.16700
C378        C  0.08501928  0.14887099  0.20489174     0.07400
C379        C  0.05559090  0.13727654  0.21023417     0.09300
C380        C  0.02998398  0.12870547  0.21471166    -0.17500
C381        C  0.23661892  0.90217677  0.32181463    -0.16700
C382        C  0.23954828  0.92576797  0.33557590     0.07400
C383        C  0.24320691  0.95392632  0.35075131     0.09300
C384        C  0.24651532  0.97877070  0.36184008    -0.17500
C385        C  0.25420787  0.08227774  0.33466348    -0.16700
C386        C  0.25238580  0.09713368  0.31213514     0.07400
C387        C  0.24821221  0.11233350  0.28454075     0.09300
C388        C  0.24210114  0.12513588  0.26152553    -0.17500
C389        C  0.26174946  0.05476703  0.44142949    -0.16700
C390        C  0.26458423  0.05892783  0.46857583     0.07400
C391        C  0.26778474  0.06119897  0.50072816     0.09300
C392        C  0.27065197  0.06048703  0.52806371    -0.17500
C393        C  0.43478825  0.34374340  0.76198960    -0.16700
C394        C  0.41722226  0.32373513  0.76849521     0.07400
C395        C  0.39776045  0.29931638  0.77602730     0.09300
C396        C  0.38153010  0.27825140  0.78254533    -0.17500
C397        C  0.29038107  0.13283112  0.71184964    -0.16700
C398        C  0.28357387  0.12468311  0.68635156     0.07400
C399        C  0.27863925  0.11078094  0.65740021     0.09300
C400        C  0.27669670  0.09535922  0.63450502    -0.17500
C401        C  0.22458688  0.88362050  0.11669813    -0.16700
C402        C  0.22344710  0.87038152  0.14013447     0.07400
C403        C  0.22341885  0.85987695  0.17000267     0.09300
C404        C  0.22393281  0.85274102  0.19612837    -0.17500
C405        C  0.23795749  0.98721395  0.09507528    -0.16700
C406        C  0.23916074  0.01183335  0.10659158     0.07400
C407        C  0.23833350  0.04062607  0.12004270     0.09300
C408        C  0.23531583  0.06601651  0.12887558    -0.17500
C409        C  0.27174809  0.07416337  0.82389266    -0.16700
C410        C  0.26111679  0.05086427  0.83277007     0.07400
C411        C  0.25308076  0.02190055  0.84259995     0.09300
C412        C  0.24966181  0.99634568  0.85033784    -0.17500
C413        C  0.23946175  0.92018293  0.92603349    -0.16700
C414        C  0.23596037  0.91585022  0.95270456     0.07400
C415        C  0.23307796  0.91390785  0.98450135     0.09300
C416        C  0.23165252  0.91543897  0.01177718    -0.17500
C417        C  0.29734518  0.17985272  0.12502159    -0.16700
C418        C  0.32158576  0.18756037  0.11464094     0.07400
C419        C  0.34765574  0.19541234  0.09741444     0.09300
C420        C  0.36754884  0.20123825  0.07942036    -0.17500
C421        C  0.38327149  0.21078995  0.97154619    -0.16700
C422        C  0.37405965  0.21037527  0.94585444     0.07400
C423        C  0.36381416  0.21033539  0.91555117     0.09300
C424        C  0.35520441  0.21074764  0.88966985    -0.17500
C425        C  0.55334204  0.24038714  0.03064298    -0.16700
C426        C  0.52678916  0.23519283  0.03533276     0.07400
C427        C  0.49528867  0.22929399  0.03859073     0.09300
C428        C  0.46830508  0.22427337  0.03882237    -0.17500
C429        C  0.65715475  0.26379620  0.06081556    -0.16700
C430        C  0.67768280  0.26911021  0.07823739     0.07400
C431        C  0.70327795  0.27559748  0.09666438     0.09300
C432        C  0.72632750  0.28073772  0.11062572    -0.17500
C433        C  0.87837096  0.22518929  0.20397854    -0.16700
C434        C  0.89284900  0.20402365  0.21168100     0.07400
C435        C  0.90995786  0.17834718  0.21775147     0.09300
C436        C  0.92587603  0.15700444  0.22099562    -0.17500
C437        C  0.82428591  0.36271064  0.25312425    -0.16700
C438        C  0.81851054  0.37502614  0.27715660     0.07400
C439        C  0.81352105  0.39394212  0.30302884     0.09300
C440        C  0.81051351  0.41289195  0.32286564    -0.17500
C441        C  0.12187429  0.22268792  0.98781656    -0.16700
C442        C  0.13155086  0.22070034  0.01320446     0.07400
C443        C  0.14436559  0.21652157  0.04208531     0.09300
C444        C  0.15657932  0.21072333  0.06556953    -0.17500
C445        C  0.21557745  0.20028138  0.83333802    -0.16700
C446        C  0.19141685  0.20344730  0.84580948     0.07400
C447        C  0.16509402  0.20860727  0.86350407     0.09300
C448        C  0.14450069  0.21339476  0.88094800    -0.17500
C449        C  0.87683554  0.26993146  0.98618182    -0.16700
C450        C  0.86755207  0.27393006  0.01168258     0.07400
C451        C  0.85577516  0.27864289  0.04123252     0.09300
C452        C  0.84503208  0.28209871  0.06622716    -0.17500
C453        C  0.95718591  0.25024420  0.91418123    -0.16700
C454        C  0.98388570  0.24535861  0.91199251     0.07400
C455        C  0.01531215  0.23973413  0.91227407     0.09300
C456        C  0.04195858  0.23498960  0.91489662    -0.17500
C457        C  0.82536247  0.59649181  0.29845923    -0.16700
C458        C  0.82315186  0.57269388  0.31096397     0.07400
C459        C  0.81929124  0.54467349  0.32523593     0.09300
C460        C  0.81554634  0.52056391  0.33684526    -0.17500
C461        C  0.88291271  0.78797325  0.26256297    -0.16700
C462        C  0.89043900  0.81290490  0.25507511     0.07400
C463        C  0.90476006  0.84073486  0.24867164     0.09300
C464        C  0.92096911  0.86247571  0.24491393    -0.17500
C465        C  0.12276758  0.35042455  0.20822556    -0.16700
C466        C  0.13846342  0.32899754  0.20440767     0.07400
C467        C  0.15364377  0.30186901  0.19966352     0.09300
C468        C  0.16424482  0.27745429  0.19604289    -0.17500
C469        C  0.01821998  0.37707229  0.20853117    -0.16700
C470        C  0.99241568  0.36893951  0.20426417     0.07400
C471        C  0.96229685  0.35978870  0.19807993     0.09300
C472        C  0.93635967  0.35357994  0.19201036    -0.17500
C473        C  0.16960508  0.71642341  0.28054432    -0.16700
C474        C  0.16255110  0.69214600  0.26990687     0.07400
C475        C  0.14973266  0.66467345  0.25904950     0.09300
C476        C  0.13480964  0.64308526  0.25076879    -0.17500
C477        C  0.95313673  0.65338166  0.23581952    -0.16700
C478        C  0.97697492  0.64225429  0.22981476     0.07400
C479        C  0.00585188  0.62995908  0.22660913     0.09300
C480        C  0.03100762  0.62034185  0.22675475    -0.17500
C481        C  0.10131305  0.53969303  0.23065505    -0.16700
C482        C  0.10232673  0.51273125  0.22881168     0.07400
C483        C  0.09998141  0.48113388  0.22617976     0.09300
C484        C  0.09540479  0.45446788  0.22337673    -0.17500
C485        C  0.31066507  0.91199762  0.63056453    -0.16700
C486        C  0.30396374  0.93741286  0.62531694     0.07400
C487        C  0.29651783  0.96662285  0.61654310     0.09300
C488        C  0.29058382  0.99138339  0.60825323    -0.17500
C489        C  0.39257965  0.70216149  0.68178506    -0.19500
C490        C  0.40420244  0.67815601  0.68459166     0.07400
C491        C  0.41987269  0.65132931  0.68925781     0.09300
C492        C  0.43576669  0.63031058  0.69397703    -0.17500
C493        C  0.27025433  0.89397310  0.82334209    -0.16700
C494        C  0.27993063  0.87820855  0.80323082     0.07400
C495        C  0.29208435  0.86165643  0.77866452     0.09300
C496        C  0.30311919  0.84834597  0.75748829    -0.17500
C497        C  0.66533600  0.28089812  0.87852257    -0.16700
C498        C  0.65306196  0.27209178  0.90126674     0.07400
C499        C  0.64018373  0.26447495  0.92959464     0.09300
C500        C  0.63080449  0.25979401  0.95484091    -0.17500
C501        C  0.53967615  0.36917310  0.74230909    -0.16700
C502        C  0.56582960  0.36232796  0.74104954     0.07400
C503        C  0.59648038  0.35429727  0.74005197     0.09300
C504        C  0.62245557  0.34680714  0.73939812    -0.17500
C505        C  0.74959046  0.42816907  0.61034019    -0.16700
C506        C  0.74345028  0.40934511  0.62902300     0.07400
C507        C  0.73617090  0.38827108  0.65199725     0.09300
C508        C  0.72993355  0.37115883  0.67226940    -0.17500
C509        C  0.85487229  0.26825834  0.87910870    -0.16700
C510        C  0.83460389  0.27249268  0.86153719     0.07400
C511        C  0.80891547  0.27921100  0.84403024     0.09300
C512        C  0.78577261  0.28698553  0.83239340    -0.17500
C513        C  0.77307651  0.48794630  0.08002155    -0.16700
C514        C  0.77303396  0.46289217  0.08954593     0.07400
C515        C  0.77720492  0.43469350  0.10242631     0.09300
C516        C  0.78453143  0.41206262  0.11444610    -0.17500
C517        C  0.82167615  0.63631216  0.17630316    -0.16700
C518        C  0.81670152  0.62335132  0.15260980     0.07400
C519        C  0.80887334  0.60631787  0.12647059     0.09300
C520        C  0.80116901  0.58993296  0.10579321    -0.17500
C521        C  0.75807767  0.61388545  0.81762732    -0.16700
C522        C  0.75491984  0.63172218  0.79798573     0.07400
C523        C  0.75078011  0.64868540  0.77195379     0.09300
C524        C  0.74712502  0.66037421  0.74804029    -0.17500
C525        C  0.75783982  0.50722056  0.82849318    -0.16700
C526        C  0.75353564  0.48241672  0.81808885     0.07400
C527        C  0.74703835  0.45301342  0.80768102     0.09300
C528        C  0.74054478  0.42741007  0.80119646    -0.17500
C529        C  0.77764566  0.56215250  0.00189619    -0.16700
C530        C  0.77594707  0.56719135  0.97530675     0.07400
C531        C  0.77376110  0.57080462  0.94378889     0.09300
C532        C  0.77137027  0.57125708  0.91667569    -0.17500
C533        C  0.37812110  0.74996903  0.37601238    -0.16700
C534        C  0.35519627  0.75485463  0.36253396     0.07400
C535        C  0.32754752  0.76220491  0.34901538     0.09300
C536        C  0.30432732  0.77043420  0.33810564    -0.17500
C537        C  0.38652024  0.76288717  0.55611214    -0.16700
C538        C  0.39736048  0.75402181  0.53262070     0.07400
C539        C  0.40832631  0.74672715  0.50342861     0.09300
C540        C  0.41564275  0.74311529  0.47733850    -0.17500
C541        C  0.65093426  0.74726890  0.46116973    -0.16700
C542        C  0.65897614  0.74711978  0.48713329     0.07400
C543        C  0.66758953  0.74516774  0.51764894     0.09300
C544        C  0.67345842  0.74126280  0.54380442    -0.17500
C545        C  0.75181901  0.73024482  0.31752326    -0.16700
C546        C  0.72782305  0.73817420  0.32726444     0.07400
C547        C  0.69952895  0.74362218  0.34068356     0.09300
C548        C  0.67687508  0.74566719  0.35564194    -0.17500
C549        C  0.57140634  0.73908957  0.38708227    -0.16700
C550        C  0.54423013  0.73771520  0.38539506     0.07400
C551        C  0.51237672  0.73726695  0.38774045     0.09300
C552        C  0.48569137  0.73786380  0.39329667    -0.17500
C553        C  0.17896661  0.75618060  0.40274479    -0.16700
C554        C  0.17461691  0.74861622  0.42838974     0.07400
C555        C  0.16638501  0.74427567  0.45881732     0.09300
C556        C  0.15745174  0.74481275  0.48457534    -0.17500
C557        C  0.25037425  0.79823217  0.62333182    -0.16700
C558        C  0.22501921  0.79044377  0.61625795     0.07400
C559        C  0.19685020  0.78182207  0.60331664     0.09300
C560        C  0.17516761  0.77453380  0.58814639    -0.17500
C561        C  0.80468236  0.75621938  0.60234766    -0.16700
C562        C  0.82778184  0.76571786  0.59114041     0.07400
C563        C  0.85600165  0.77219381  0.57738616     0.09300
C564        C  0.87927663  0.77437416  0.56322223    -0.17500
C565        C  0.91069541  0.76218997  0.45994397    -0.16700
C566        C  0.90173408  0.75668594  0.43466702     0.07400
C567        C  0.89113453  0.74873215  0.40542705     0.09300
C568        C  0.88417783  0.74057799  0.38017239    -0.17500
C569        C  0.98667035  0.77005583  0.53865682    -0.16700
C570        C  0.01331508  0.76867395  0.54425862     0.07400
C571        C  0.04493311  0.76638909  0.54843490     0.09300
C572        C  0.07207407  0.76405834  0.54937246    -0.17500
C573        C  0.51487727  0.12107279  0.76464944    -0.16700
C574        C  0.48962438  0.12994181  0.76887018     0.07400
C575        C  0.45958675  0.13949279  0.77285284     0.09300
C576        C  0.43352065  0.14633823  0.77596621    -0.17500
C577        C  0.67392979  0.20956740  0.75586684    -0.16700
C578        C  0.66045007  0.18568197  0.75580170     0.07400
C579        C  0.64125620  0.15977009  0.75511384     0.09300
C580        C  0.62236862  0.13974894  0.75421319    -0.17500
C581        C  0.62124069  0.85986049  0.68813698    -0.16700
C582        C  0.63986647  0.84119486  0.68252923     0.07400
C583        C  0.65745956  0.81635883  0.67385094     0.09300
C584        C  0.66804282  0.79324214  0.66451083    -0.17500
C585        C  0.43740774  0.82479269  0.68730843    -0.16700
C586        C  0.46113385  0.83862713  0.68884647     0.07400
C587        C  0.48894623  0.85481747  0.69092803     0.09300
C588        C  0.51301108  0.86801319  0.69276227    -0.17500
C589        C  0.57671998  0.95679180  0.70947208    -0.16700
C590        C  0.57848459  0.98325657  0.71583395     0.07400
C591        C  0.57947036  0.01412990  0.72417818     0.09300
C592        C  0.57896243  0.04024743  0.73198246    -0.17500
loop_ 
_geom_bond_atom_site_label_1 
_geom_bond_atom_site_label_2 
_geom_bond_distance 
_geom_bond_site_symmetry_2 
_ccdc_geom_bond_type 
C1            N2   1.357       .  A
C1            N6   1.360       .  A
C1          C581   1.441       .  S
N2            C3   1.355       .  A
C3            N4   1.359       .  A
C3          C588   1.441       .  S
N4            C5   1.361       .  A
C5            N6   1.362       .  A
C5          C589   1.445       .  S
C7            N8   1.362       .  A
C7           N12   1.359       .  A
C7          C580   1.445       .  S
N8            C9   1.363       .  A
C9           N10   1.358       .  A
C9          C592   1.445       .  S
N10          C11   1.357       .  A
C11          N12   1.357       .  A
C11         C573   1.441       .  S
C13          N14   1.353       .  A
C13          N18   1.362       .  A
C13         C564   1.437       .  S
N14          C15   1.352       .  A
C15          N16   1.358       .  A
C15         C565   1.436       .  S
N16          C17   1.361       .  A
C17          N18   1.363       .  A
C17         C569   1.445       .  S
C19          N20   1.364       .  A
C19          N24   1.356       .  A
C19         C560   1.441       .  S
N20          C21   1.364       .  A
C21          N22   1.357       .  A
C21         C572   1.444       .  S
N22          C23   1.355       .  A
C23          N24   1.353       .  A
C23         C556   1.432       .  S
C25          N26   1.355       .  A
C25          N30   1.361       .  A
C25         C548   1.432       .  S
N26          C27   1.352       .  A
C27          N28   1.355       .  A
C27         C541   1.432       .  S
N28          C29   1.358       .  A
C29          N30   1.361       .  A
C29         C549   1.438       .  S
C31          N32   1.361       .  A
C31          N36   1.355       .  A
C31         C533   1.438       .  S
N32          C33   1.362       .  A
C33          N34   1.359       .  A
C33         C552   1.439       .  S
N34          C35   1.356       .  A
C35          N36   1.354       .  A
C35         C540   1.434       .  S
C37          N38   1.355       .  A
C37          N42   1.359       .  A
C37         C521   1.430       .  S
N38          C39   1.353       .  A
C39          N40   1.355       .  A
C39         C525   1.431       .  S
N40          C41   1.357       .  A
C41          N42   1.359       .  A
C41         C532   1.433       .  S
C43          N44   1.357       .  A
C43          N48   1.355       .  A
C43         C520   1.434       .  S
N44          C45   1.358       .  A
C45          N46   1.359       .  A
C45         C529   1.434       .  S
N46          C47   1.357       .  A
C47          N48   1.355       .  A
C47         C513   1.435       .  S
O49         Ni55   1.941       .  S
O49          C70   1.274       .  A
O50         Ni73   1.906       .  S
O50          C59   1.266       .  A
O51         Ni55   1.925       .  S
O51         Ni73   1.919       .  S
O51         Ni67   1.937       .  S
O51          H74   0.964       .  S
C52         C497   1.441       .  S
C52          O69   1.279       .  A
C52          O61   1.275       .  A
O53         Ni72   1.924       .  S
O53          C59   1.268       .  A
O54         Ni72   1.905       .  S
O54          C56   1.267       .  A
Ni55         O58   1.954       .  S
Ni55         O60   1.904       .  S
C56         C512   1.445       .  S
C56          O66   1.275       .  A
O57         Ni73   1.913       .  S
O57          C63   1.269       .  A
O58          C63   1.277       .  A
C59         C528   1.430       .  S
O60          C62   1.268       .  A
O61         Ni72   1.920       .  S
C62         C504   1.437       .  S
C62          O68   1.274       .  A
C63         C508   1.455       .  S
H64          O65   0.964       .  S
O65         Ni73   1.906       .  S
O65         Ni67   1.894       .  S
O65         Ni72   1.903       .  S
O66         Ni67   1.944       .  S
Ni67         O71   1.907       .  S
Ni67         O69   1.935       .  S
O68         Ni73   1.943       .  S
C70         C577   1.444       .  S
C70          O71   1.268       .  A
O75         Ni81   1.931       .  S
O75          C96   1.270       .  A
O76         Ni99   1.902       .  S
O76          C85   1.266       .  A
O77         Ni81   1.915       .  S
O77         Ni99   1.905       .  S
O77         Ni93   1.909       .  S
O77         H100   0.966       .  S
C78         C489   1.444       .  S
C78          O95   1.268       .  A
C78          O87   1.272       .  A
O79         Ni98   1.932       .  S
O79          C85   1.271       .  A
O80         Ni98   1.908       .  S
O80          C82   1.268       .  A
Ni81         O84   1.922       .  S
Ni81         O86   1.907       .  S
C82         C585   1.440       .  S
C82          O92   1.274       .  A
O83         Ni99   1.927       .  S
O83          C89   1.276       .  A
O84          C89   1.273       .  A
C85         C496   1.436       .  S
O86          C88   1.267       .  A
O87         Ni98   1.936       .  S
C88         C557   1.441       .  S
C88          O94   1.272       .  A
C89         C485   1.440       .  S
H90          O91   0.969       .  S
O91         Ni99   1.928       .  S
O91         Ni93   1.918       .  S
O91         Ni98   1.927       .  S
O92         Ni93   1.940       .  S
Ni93         O97   1.905       .  S
Ni93         O95   1.912       .  S
O94         Ni99   1.935       .  S
C96         C537   1.434       .  S
C96          O97   1.264       .  A
C101        N102   1.356       .  A
C101        N106   1.362       .  A
C101        C476   1.439       .  S
N102        C103   1.354       .  A
C103        N104   1.355       .  A
C103        C480   1.434       .  S
N104        C105   1.358       .  A
C105        N106   1.363       .  A
C105        C481   1.440       .  S
C107        N108   1.356       .  A
C107        N112   1.360       .  A
C107        C465   1.436       .  S
N108        C109   1.354       .  A
C109        N110   1.357       .  A
C109        C469   1.437       .  S
N110        C111   1.359       .  A
C111        N112   1.360       .  A
C111        C484   1.440       .  S
O113       Ni119   1.927       .  S
O113        C134   1.269       .  A
O114       Ni137   1.910       .  S
O114        C123   1.267       .  A
O115       Ni119   1.906       .  S
O115       Ni137   1.905       .  S
O115       Ni131   1.911       .  S
O115        H138   0.966       .  S
C116        C517   1.433       .  S
C116        O133   1.273       .  A
C116        O125   1.274       .  A
O117       Ni136   1.922       .  S
O117        C123   1.268       .  A
O118       Ni136   1.910       .  S
O118        C120   1.267       .  A
Ni119       O122   1.917       .  S
Ni119       O124   1.904       .  S
C120        C457   1.444       .  S
C120        O130   1.272       .  A
O121       Ni137   1.929       .  S
O121        C127   1.278       .  A
O122        C127   1.274       .  A
C123        C545   1.432       .  S
O124        C126   1.266       .  A
O125       Ni136   1.922       .  S
C126        C461   1.439       .  S
C126        O132   1.272       .  A
C127        C568   1.435       .  S
H128        O129   0.967       .  S
O129       Ni137   1.918       .  S
O129       Ni131   1.907       .  S
O129       Ni136   1.913       .  S
O130       Ni131   1.937       .  S
Ni131       O135   1.906       .  S
Ni131       O133   1.916       .  S
O132       Ni137   1.935       .  S
C134        C477   1.433       .  S
C134        O135   1.266       .  A
C139        N140   1.363       .  A
C139        N144   1.358       .  A
C139        C509   1.446       .  S
N140        C141   1.363       .  A
C141        N142   1.359       .  A
C141        C453   1.446       .  S
N142        C143   1.357       .  A
C143        N144   1.357       .  A
C143        C449   1.441       .  S
C145        N146   1.362       .  A
C145        N150   1.358       .  A
C145        C448   1.446       .  S
N146        C147   1.363       .  A
C147        N148   1.360       .  A
C147        C456   1.446       .  S
N148        C149   1.358       .  A
C149        N150   1.357       .  A
C149        C441   1.442       .  S
O151       Ni157   1.927       .  S
O151        C172   1.269       .  A
O152       Ni175   1.917       .  S
O152        C161   1.271       .  A
O153       Ni157   1.904       .  S
O153       Ni175   1.902       .  S
O153       Ni169   1.911       .  S
O153        H176   0.965       .  S
C154        C432   1.444       .  S
C154        O171   1.272       .  A
C154        O163   1.274       .  A
O155       Ni174   1.934       .  S
O155        C161   1.272       .  A
O156       Ni174   1.909       .  S
O156        C158   1.267       .  A
Ni157       O160   1.918       .  S
Ni157       O162   1.904       .  S
C158        C452   1.441       .  S
C158        O168   1.272       .  A
O159       Ni175   1.928       .  S
O159        C165   1.277       .  A
O160        C165   1.274       .  A
C161        C433   1.445       .  S
O162        C164   1.267       .  A
O163       Ni174   1.936       .  S
C164        C437   1.449       .  S
C164        O170   1.279       .  A
C165        C472   1.436       .  S
H166        O167   0.965       .  S
O167       Ni175   1.925       .  S
O167       Ni169   1.918       .  S
O167       Ni174   1.921       .  S
O168       Ni169   1.938       .  S
Ni169       O173   1.910       .  S
Ni169       O171   1.916       .  S
O170       Ni175   1.952       .  S
C172        C516   1.435       .  S
C172        O173   1.266       .  A
C177        N178   1.364       .  A
C177        N182   1.358       .  A
C177        C428   1.445       .  S
N178        C179   1.364       .  A
C179        N180   1.359       .  A
C179        C420   1.446       .  S
N180        C181   1.357       .  A
C181        N182   1.356       .  A
C181        C421   1.440   1_554  S
C183        N184   1.361       .  A
C183        N188   1.357       .  A
C183        C429   1.444       .  S
N184        C185   1.362       .  A
C185        N186   1.361   1_554  A
C185        C425   1.446       .  S
N186        C187   1.359       .  A
C187        N188   1.357   1_556  A
C187        C500   1.442       .  S
C189        N190   1.359       .  A
C189        N194   1.356       .  A
C189        C493   1.436       .  S
N190        C191   1.360       .  A
C191        N192   1.359       .  A
C191        C413   1.439       .  S
N192        C193   1.357       .  A
C193        N194   1.355       .  A
C193        C412   1.436       .  S
C195        N196   1.361       .  A
C195        N200   1.352       .  A
C195        C401   1.432       .  S
N196        C197   1.363       .  A
C197        N198   1.359       .  A
C197        C416   1.439       .  S
N198        C199   1.355       .  A
C199        N200   1.349       .  A
C199        C405   1.430       .  S
O201       Ni207   1.934       .  S
O201        C222   1.271       .  A
O202       Ni225   1.912       .  S
O202        C211   1.267       .  A
O203       Ni207   1.924       .  S
O203       Ni225   1.920       .  S
O203       Ni219   1.923       .  S
O203        H226   0.968       .  S
C204        C409   1.435       .  S
C204        O221   1.275       .  A
C204        O213   1.274       .  A
O205       Ni224   1.931       .  S
O205        C211   1.270       .  A
O206       Ni224   1.907       .  S
O206        C208   1.268       .  A
Ni207       O210   1.933       .  S
Ni207       O212   1.910       .  S
C208        C397   1.449       .  S
C208        O218   1.278       .  A
O209       Ni225   1.916       .  S
O209        C215   1.272       .  A
O210        C215   1.274       .  A
C211        C576   1.440       .  S
O212        C214   1.267       .  A
O213       Ni224   1.920       .  S
C214        C424   1.440       .  S
C214        O220   1.271       .  A
C215        C396   1.443       .  S
H216        O217   0.964       .  S
O217       Ni225   1.908       .  S
O217       Ni219   1.907       .  S
O217       Ni224   1.909       .  S
O218       Ni219   1.950       .  S
Ni219       O223   1.916       .  S
Ni219       O221   1.922       .  S
O220       Ni225   1.932       .  S
C222        C445   1.445       .  S
C222        O223   1.270       .  A
C227        N228   1.365       .  A
C227        N232   1.355       .  A
C227        C385   1.447       .  S
N228        C229   1.367       .  A
C229        N230   1.363       .  A
C229        C389   1.455       .  S
N230        C231   1.360       .  A
C231        N232   1.354       .  A
C231        C384   1.443   1_545  S
C233        N234   1.367       .  A
C233        N238   1.357       .  A
C233        C400   1.449       .  S
N234        C235   1.368       .  A
C235        N236   1.360       .  A
C235        C392   1.454       .  S
N236        C237   1.358       .  A
C237        N238   1.354       .  A
C237        C488   1.441   1_545  S
O239       Ni245   1.926       .  S
O239        C260   1.268       .  A
O240       Ni263   1.926       .  S
O240        C249   1.273       .  A
O241       Ni245   1.906       .  S
O241       Ni263   1.910       .  S
O241       Ni257   1.905       .  S
O241        H264   0.964       .  S
C242        C468   1.435       .  S
C242        O259   1.272       .  A
C242        O251   1.273       .  A
O243       Ni262   1.929       .  S
O243        C249   1.269       .  A
O244       Ni262   1.908       .  S
O244        C246   1.267       .  A
Ni245       O248   1.913       .  S
Ni245       O250   1.902       .  S
C246        C377   1.436       .  S
C246        O256   1.270       .  A
O247       Ni263   1.923       .  S
O247        C253   1.277       .  A
O248        C253   1.273       .  A
C249        C388   1.447       .  S
O250        C252   1.267       .  A
O251       Ni262   1.925       .  S
C252        C417   1.444       .  S
C252        O258   1.276       .  A
C253        C408   1.429       .  S
H254        O255   0.969       .  S
O255       Ni263   1.920       .  S
O255       Ni257   1.920       .  S
O255       Ni262   1.919       .  S
O256       Ni257   1.928       .  S
Ni257       O261   1.917       .  S
Ni257       O259   1.914       .  S
O258       Ni263   1.947       .  S
C260        C444   1.441       .  S
C260        O261   1.267       .  A
C265        N266   1.361       .  A
C265        N270   1.357       .  A
C265        C464   1.441       .  S
N266        C267   1.362       .  A
C267        N268   1.360       .  A
C267        C373   1.444       .  S
N268        C269   1.358       .  A
C269        N270   1.355       .  A
C269        C372   1.439   1_655  S
C271        N272   1.356       .  A
C271        N276   1.364       .  A
C271        C436   1.445       .  S
N272        C273   1.355       .  A
C273        N274   1.355       .  A
C273        C380   1.436   1_655  S
N274        C275   1.358       .  A
C275        N276   1.365       .  A
C275        C376   1.444       .  S
O277       Ni283   1.936       .  S
O277        C298   1.271       .  A
O278       Ni301   1.913       .  S
O278        C287   1.268       .  A
O279       Ni283   1.917       .  S
O279       Ni301   1.917       .  S
O279       Ni295   1.911       .  S
O279        H302   0.966       .  S
C280        C404   1.434       .  S
C280        O297   1.271       .  A
C280        O289   1.274       .  A
O281       Ni300   1.930       .  S
O281        C287   1.270       .  A
O282       Ni300   1.915       .  S
O282        C284   1.268       .  A
Ni283       O286   1.928       .  S
Ni283       O288   1.904       .  S
C284        C381   1.444       .  S
C284        O294   1.270       .  A
O285       Ni301   1.905       .  S
O285        C291   1.269       .  A
O286        C291   1.273       .  A
C287        C536   1.438       .  S
O288        C290   1.268       .  A
O289       Ni300   1.926       .  S
C290        C473   1.439       .  S
C290        O296   1.274       .  A
C291        C553   1.431       .  S
H292        O293   0.969       .  S
O293       Ni301   1.906       .  S
O293       Ni295   1.909       .  S
O293       Ni300   1.919       .  S
O294       Ni295   1.929       .  S
Ni295       O299   1.903       .  S
Ni295       O297   1.911       .  S
O296       Ni301   1.942       .  S
C298        C369   1.439       .  S
C298        O299   1.264       .  A
C303        N304   1.358       .  A
C303        N308   1.363       .  A
C303        C393   1.443       .  S
N304        C305   1.357       .  A
C305        N306   1.356       .  A
C305        C501   1.437       .  S
N306        C307   1.357       .  A
C307        N308   1.362       .  A
C307        C365   1.443       .  S
C309        N310   1.356       .  A
C309        N314   1.363       .  A
C309        C492   1.443       .  S
N310        C311   1.355       .  A
C311        N312   1.357       .  A
C311        C361   1.437       .  S
N312        C313   1.360       .  A
C313        N314   1.364       .  A
C313        C368   1.444       .  S
C315        N316   1.365       .  A
C315        N320   1.358       .  A
C315        C440   1.451       .  S
N316        C317   1.366       .  A
C317        N318   1.361       .  A
C317        C357   1.454       .  S
N318        C319   1.359       .  A
C319        N320   1.357       .  A
C319        C460   1.445       .  S
C321        N322   1.365       .  A
C321        N326   1.360       .  A
C321        C505   1.455       .  S
N322        C323   1.365       .  A
C323        N324   1.361       .  A
C323        C360   1.454       .  S
N324        C325   1.360       .  A
C325        N326   1.359       .  A
C325        C353   1.447       .  S
O327       Ni333   1.930       .  S
O327        C348   1.269       .  A
O328       Ni351   1.916       .  S
O328        C337   1.269       .  A
O329       Ni333   1.910       .  S
O329       Ni351   1.910       .  S
O329       Ni345   1.907       .  S
O329        H352   0.965       .  S
C330        C524   1.430       .  S
C330        O347   1.271       .  A
C330        O339   1.274       .  A
O331       Ni350   1.925       .  S
O331        C337   1.269       .  A
O332       Ni350   1.915       .  S
O332        C334   1.268       .  A
Ni333       O336   1.920       .  S
Ni333       O338   1.903       .  S
C334        C356   1.446       .  S
C334        O344   1.271       .  A
O335       Ni351   1.917       .  S
O335        C341   1.275       .  A
O336        C341   1.274       .  A
C337        C561   1.437       .  S
O338        C340   1.266       .  A
O339       Ni350   1.924       .  S
C340        C584   1.440       .  S
C340        O346   1.273       .  A
C341        C544   1.432       .  S
H342        O343   0.970       .  S
O343       Ni351   1.912       .  S
O343       Ni345   1.910       .  S
O343       Ni350   1.916       .  S
O344       Ni345   1.934       .  S
Ni345       O349   1.909       .  S
Ni345       O347   1.908       .  S
O346       Ni351   1.939       .  S
C348        C364   1.437       .  S
C348        O349   1.265       .  A
C353        C354   1.212       .  T
C354        C355   1.423       .  S
C355        C356   1.212       .  T
C357        C358   1.217       .  T
C358        C359   1.430       .  S
C359        C360   1.217       .  T
C361        C362   1.207       .  T
C362        C363   1.413       .  S
C363        C364   1.207       .  T
C365        C366   1.210       .  T
C366        C367   1.420       .  S
C367        C368   1.211       .  T
C369        C370   1.208       .  T
C370        C371   1.415       .  S
C371        C372   1.208       .  T
C373        C374   1.211       .  T
C374        C375   1.420   1_565  S
C375        C376   1.211       .  T
C377        C378   1.206       .  T
C378        C379   1.413       .  S
C379        C380   1.206       .  T
C381        C382   1.211       .  T
C382        C383   1.420       .  S
C383        C384   1.210       .  T
C385        C386   1.213       .  T
C386        C387   1.424       .  S
C387        C388   1.213       .  T
C389        C390   1.217       .  T
C390        C391   1.430       .  S
C391        C392   1.217       .  T
C393        C394   1.210       .  T
C394        C395   1.419       .  S
C395        C396   1.210       .  T
C397        C398   1.214       .  T
C398        C399   1.426       .  S
C399        C400   1.214       .  T
C401        C402   1.205       .  T
C402        C403   1.411       .  S
C403        C404   1.205       .  T
C405        C406   1.203   1_565  T
C406        C407   1.407       .  S
C407        C408   1.203       .  T
C409        C410   1.206       .  T
C410        C411   1.412       .  S
C411        C412   1.206   1_545  T
C413        C414   1.208       .  T
C414        C415   1.415       .  S
C415        C416   1.208   1_556  T
C417        C418   1.211       .  T
C418        C419   1.422       .  S
C419        C420   1.212       .  T
C421        C422   1.208       .  T
C422        C423   1.417       .  S
C423        C424   1.209       .  T
C425        C426   1.212       .  T
C426        C427   1.422       .  S
C427        C428   1.212       .  T
C429        C430   1.211       .  T
C430        C431   1.421       .  S
C431        C432   1.211       .  T
C433        C434   1.212       .  T
C434        C435   1.422       .  S
C435        C436   1.212       .  T
C437        C438   1.215       .  T
C438        C439   1.427       .  S
C439        C440   1.215       .  T
C441        C442   1.209   1_556  T
C442        C443   1.418       .  S
C443        C444   1.209       .  T
C445        C446   1.212       .  T
C446        C447   1.422       .  S
C447        C448   1.212       .  T
C449        C450   1.209   1_556  T
C450        C451   1.417       .  S
C451        C452   1.209       .  T
C453        C454   1.212       .  T
C454        C455   1.422   1_655  S
C455        C456   1.212       .  T
C457        C458   1.211       .  T
C458        C459   1.421       .  S
C459        C460   1.211       .  T
C461        C462   1.208       .  T
C462        C463   1.417       .  S
C463        C464   1.209       .  T
C465        C466   1.206       .  T
C466        C467   1.412       .  S
C467        C468   1.206       .  T
C469        C470   1.206   1_455  T
C470        C471   1.413       .  S
C471        C472   1.206       .  T
C473        C474   1.208       .  T
C474        C475   1.416       .  S
C475        C476   1.208       .  T
C477        C478   1.205       .  T
C478        C479   1.410   1_655  S
C479        C480   1.205       .  T
C481        C482   1.208       .  T
C482        C483   1.416       .  S
C483        C484   1.208       .  T
C485        C486   1.209       .  T
C486        C487   1.417       .  S
C487        C488   1.209       .  T
C489        C490   1.211       .  T
C490        C491   1.420       .  S
C491        C492   1.210       .  T
C493        C494   1.206       .  T
C494        C495   1.412       .  S
C495        C496   1.206       .  T
C497        C498   1.210       .  T
C498        C499   1.418       .  S
C499        C500   1.210       .  T
C501        C502   1.207       .  T
C502        C503   1.414       .  S
C503        C504   1.207       .  T
C505        C506   1.217       .  T
C506        C507   1.431       .  S
C507        C508   1.217       .  T
C509        C510   1.212       .  T
C510        C511   1.422       .  S
C511        C512   1.212       .  T
C513        C514   1.205       .  T
C514        C515   1.411       .  S
C515        C516   1.205       .  T
C517        C518   1.205       .  T
C518        C519   1.410       .  S
C519        C520   1.204       .  T
C521        C522   1.203       .  T
C522        C523   1.407       .  S
C523        C524   1.203       .  T
C525        C526   1.203       .  T
C526        C527   1.407       .  S
C527        C528   1.203       .  T
C529        C530   1.205   1_554  T
C530        C531   1.410       .  S
C531        C532   1.204       .  T
C533        C534   1.207       .  T
C534        C535   1.415       .  S
C535        C536   1.208       .  T
C537        C538   1.205       .  T
C538        C539   1.411       .  S
C539        C540   1.205       .  T
C541        C542   1.204       .  T
C542        C543   1.409       .  S
C543        C544   1.204       .  T
C545        C546   1.204       .  T
C546        C547   1.409       .  S
C547        C548   1.204       .  T
C549        C550   1.207       .  T
C550        C551   1.415       .  S
C551        C552   1.208       .  T
C553        C554   1.203       .  T
C554        C555   1.408       .  S
C555        C556   1.203       .  T
C557        C558   1.209       .  T
C558        C559   1.418       .  S
C559        C560   1.209       .  T
C561        C562   1.207       .  T
C562        C563   1.414       .  S
C563        C564   1.207       .  T
C565        C566   1.206       .  T
C566        C567   1.413       .  S
C567        C568   1.206       .  T
C569        C570   1.211   1_655  T
C570        C571   1.421       .  S
C571        C572   1.211       .  T
C573        C574   1.209       .  T
C574        C575   1.417       .  S
C575        C576   1.209       .  T
C577        C578   1.211       .  T
C578        C579   1.421       .  S
C579        C580   1.211       .  T
C581        C582   1.209       .  T
C582        C583   1.417       .  S
C583        C584   1.209       .  T
C585        C586   1.209       .  T
C586        C587   1.417       .  S
C587        C588   1.209       .  T
C589        C590   1.211       .  T
C590        C591   1.421   1_565  S
C591        C592   1.211       .  T
