geometry optimzed in LAMMPS
_audit_creation_date              2020-11-30 
_audit_creation_method            'lammps2cif' 
_symmetry_space_group_name_H-M    'P1' 
_symmetry_Int_Tables_number       1 
_symmetry_cell_setting            triclinic 
loop_ 
_symmetry_equiv_pos_as_xyz 
  x,y,z 
_cell_length_a                    36.07343045 
_cell_length_b                    46.55521395661559 
_cell_length_c                    29.24787536638876 
_cell_angle_alpha                 89.99001003519656 
_cell_angle_beta                  90.00996249112923 
_cell_angle_gamma                 90.02089763388835 
loop_ 
_atom_site_label 
_atom_site_type_symbol 
_atom_site_fract_x 
_atom_site_fract_y 
_atom_site_fract_z 
_atom_site_charge 
C1          C  0.16044806  0.26573232  0.36236517     0.03700
C2          C  0.17511022  0.28906253  0.38688186    -0.12400
C3          C  0.15518781  0.30096765  0.42339750     0.01200
C4          C  0.12060846  0.28956698  0.43534024    -0.11000
C5          C  0.10570572  0.26630262  0.41123994     0.03700
C6          C  0.12572226  0.25431555  0.37474853    -0.10400
H7          H  0.20130006  0.29851384  0.37663180     0.09300
H8          H  0.10488042  0.29923133  0.46293638     0.06800
H9          H  0.11403686  0.23658908  0.35551652     0.06700
C10         C  0.29371035  0.18878969  0.06989429     0.03700
C11         C  0.27954575  0.16515916  0.04570938    -0.12400
C12         C  0.29802927  0.15484470  0.00711864     0.01200
C13         C  0.33110212  0.16761750  0.49296667    -0.11000
C14         C  0.34680671  0.19023929  0.01798281     0.03700
C15         C  0.32765174  0.20109794  0.05608500    -0.10400
H16         H  0.25422304  0.15471782  0.05676601     0.09300
H17         H  0.34574103  0.15861699  0.46392740     0.06800
H18         H  0.33942010  0.21877874  0.07532852     0.06700
O19         O  0.18304069  0.28775068  0.18362701    -0.77900
C20         C  0.13436604  0.20129461  0.17347776     0.83100
O21         O  0.21202830  0.24357142  0.32626934    -0.79000
O22         O  0.23097036  0.15667610  0.23319346    -0.80500
O23         O  0.28140349  0.22508410  0.12451939    -0.80300
O24         O  0.23891213  0.28662593  0.15110957    -0.78900
Zn25       Zn  0.17896528  0.24961982  0.21739100     1.55700
O26         O  0.24957295  0.18419240  0.12986022    -0.80300
Cd27       Cd  0.26187398  0.24965872  0.17770037     1.59700
Cd28       Cd  0.24656445  0.22338131  0.27892416     1.59600
O29         O  0.30754782  0.26107176  0.21537118    -0.80300
O30         O  0.22547982  0.22816767  0.21583848    -1.90800
Cd31       Cd  0.21734745  0.18937938  0.18800448     1.59900
O32         O  0.29992141  0.24077785  0.28371306    -0.80300
O33         O  0.16195163  0.18423179  0.17150076    -0.78900
C34         C  0.17999109  0.25487186  0.32174137     0.83600
C35         C  0.20786605  0.29882616  0.15810018     0.83300
O36         O  0.13729231  0.22686695  0.18849403    -0.77900
C37         C  0.27375273  0.19995753  0.11022958     0.84100
O38         O  0.16433014  0.25749962  0.28289887    -0.78000
C39         C  0.31915661  0.25550803  0.25551288     0.84200
C40         C  0.24276529  0.15662222  0.27428941     0.84500
O41         O  0.24952051  0.17998335  0.29566227    -0.80400
C42         C  0.18114737  0.35242203  0.01409042     0.80800
N43         N  0.17629926  0.37769569  0.49152227    -0.77500
C44         C  0.16797271  0.37791084  0.44627021     0.83200
N45         N  0.16339634  0.35274136  0.42369001    -0.77500
C46         C  0.16756366  0.32740570  0.44590531     0.83300
N47         N  0.17591544  0.32729123  0.49119633    -0.79200
C48         C  0.20058878  0.37842347  0.13496108     0.03700
C49         C  0.19346316  0.37834576  0.08784889    -0.12400
C50         C  0.18941285  0.35234184  0.06384129     0.01200
C51         C  0.19348208  0.32631981  0.08777166    -0.11000
C52         C  0.20055242  0.32622261  0.13492070     0.03700
C53         C  0.20367341  0.35231614  0.15861789    -0.10400
H54         H  0.19135848  0.39868385  0.07001111     0.09300
H55         H  0.19141961  0.30600859  0.06985372     0.06800
H56         H  0.21007696  0.35230471  0.19482792     0.06700
C57         C  0.15932620  0.43833191  0.36121232     0.03700
C58         C  0.17468107  0.41560768  0.38632738    -0.12400
C59         C  0.15583507  0.40453733  0.42422393     0.01200
C60         C  0.12204617  0.41662095  0.43765386    -0.11000
C61         C  0.10574088  0.43889956  0.41225203     0.03700
C62         C  0.12449109  0.44952454  0.37357595    -0.10400
H63         H  0.20064609  0.40598763  0.37556851     0.09300
H64         H  0.10749374  0.40747119  0.46664516     0.06800
H65         H  0.11238481  0.46669682  0.35349811     0.06700
C66         C  0.29243687  0.01599443  0.06892100     0.03700
C67         C  0.27919859  0.04030207  0.04549043    -0.12400
C68         C  0.29903770  0.05153751  0.00846551     0.01200
C69         C  0.33298116  0.03944361  0.49594929    -0.11000
C70         C  0.34693233  0.01564253  0.01938728     0.03700
C71         C  0.32620505  0.50340582  0.05500921    -0.10400
H72         H  0.25358276  0.05055935  0.05596426     0.09300
H73         H  0.34898191  0.04898335  0.46845513     0.06800
H74         H  0.33729462  0.48502873  0.07318390     0.06700
O75         O  0.13619019  0.47823808  0.18927174    -0.77900
C76         C  0.20775395  0.40584841  0.15815993     0.83100
O77         O  0.21068143  0.46093054  0.32570484    -0.79400
O78         O  0.30763384  0.44526908  0.21612494    -0.80500
O79         O  0.24813695  0.02054723  0.12895960    -0.80300
O80         O  0.16105195  0.02106077  0.17388027    -0.78900
Zn81       Zn  0.17816024  0.45516254  0.21674923     1.55700
O82         O  0.28021318  0.47976453  0.12392351    -0.80300
Cd83       Cd  0.21675549  0.01552126  0.18812852     1.59700
Cd84       Cd  0.24529804  0.48150222  0.27910447     1.59600
O85         O  0.23128342  0.04812244  0.23313505    -0.80300
O86         O  0.22475030  0.47667976  0.21573270    -1.90800
Cd87       Cd  0.26153393  0.45533331  0.17799403     1.59900
O88         O  0.24799044  0.02478630  0.29632803    -0.80300
O89         O  0.23920064  0.41773985  0.15242238    -0.78900
C90         C  0.17886981  0.44931673  0.32078347     0.83600
C91         C  0.13329416  0.00414738  0.17578017     0.83300
O92         O  0.18233721  0.41730370  0.18231821    -0.77900
C93         C  0.27228944  0.00477296  0.10925207     0.84100
O94         O  0.16346251  0.44662685  0.28184069    -0.78000
C95         C  0.24224823  0.04815878  0.27458504     0.84200
C96         C  0.31883845  0.45086100  0.25647809     0.84500
O97         O  0.29886427  0.46486315  0.28474803    -0.80400
C98         C  0.24846410  0.12873515  0.29814600     0.03700
C99         C  0.25846685  0.12843191  0.34455170    -0.12400
C100        C  0.26323519  0.10245850  0.36826942     0.01200
C101        C  0.25823013  0.07641745  0.34481233    -0.11000
C102        C  0.24820766  0.07604341  0.29835944     0.03700
C103        C  0.24335757  0.10237407  0.27527491    -0.10400
H104        H  0.26220786  0.14858781  0.36243978     0.09300
H105        H  0.26180139  0.05631594  0.36292261     0.06800
H106        H  0.23551347  0.10235370  0.23952687     0.06700
C107        C  0.27293392  0.10263503  0.41757662     0.80800
N108        N  0.27778584  0.12794559  0.43997387    -0.77500
C109        C  0.28636815  0.12822121  0.48511970     0.83200
N110        N  0.29111776  0.10317079  0.00781807    -0.77500
C111        C  0.28705033  0.07785055  0.48571073     0.83300
N112        N  0.27841722  0.07757836  0.44052501    -0.79200
C113        C  0.04265607  0.19060538  0.11238818     0.03700
C114        C  0.02816374  0.16740191  0.13741119    -0.12400
C115        C  0.04832018  0.15579495  0.17401844     0.01200
C116        C  0.08288580  0.16731912  0.18546870    -0.11000
C117        C  0.09759181  0.19038340  0.16081762     0.03700
C118        C  0.07740656  0.20213878  0.12431461    -0.10400
H119        H  0.00200018  0.15778215  0.12743207     0.09300
H120        H  0.09884368  0.15782150  0.21302212     0.06800
H121        H  0.08897904  0.21976140  0.10472366     0.06700
C122        C  0.40924087  0.26844960  0.32065114     0.03700
C123        C  0.42284538  0.29257285  0.29715187    -0.12400
C124        C  0.40393313  0.30324618  0.25908112     0.01200
C125        C  0.37085302  0.29036887  0.24496708    -0.11000
C126        C  0.35572282  0.26716535  0.26928714     0.03700
C127        C  0.37537056  0.25600672  0.30679564    -0.10400
H128        H  0.44824813  0.30294320  0.30808737     0.09300
H129        H  0.35598409  0.29947913  0.21617820     0.06800
H130        H  0.36409337  0.23789376  0.32546844     0.06700
O131        O  0.03858096  0.19863653  0.03287438    -0.77900
C132        C  0.49493361  0.15704960  0.40828716     0.83100
O133        O  0.04135856  0.27251398  0.42302169    -0.79000
O134        O  0.42235897  0.23150608  0.37396564    -0.80500
O135        O  0.40327099  0.21526555  0.03340306    -0.80300
O136        O  0.49093833  0.21255776  0.07636684    -0.78900
Zn137      Zn  0.02418594  0.20656175  0.46720366     1.55700
O138        O  0.39515812  0.19610392  0.46434509    -0.80300
Cd139      Cd  0.45641180  0.23259016  0.02897560     1.59700
Cd140      Cd  0.48574200  0.26698013  0.43868446     1.59600
O141        O  0.45209376  0.27577015  0.04614592    -0.80300
O142        O  0.47766381  0.22802071  0.46585470    -1.90800
Cd143      Cd  0.44138837  0.20671722  0.42725942     1.59900
O144        O  0.47074667  0.29922171  0.48388728    -0.80300
O145        O  0.46384178  0.16924572  0.40148409    -0.78900
C146        C  0.06892107  0.25537423  0.42427045     0.83600
C147        C  0.02296418  0.20126973  0.07175754     0.83300
O148        O  0.01999271  0.16832360  0.43330361    -0.77900
C149        C  0.38366744  0.20134305  0.00463431     0.84100
O150        O  0.06590974  0.22958429  0.43841928    -0.78000
C151        C  0.45834003  0.29916013  0.02469435     0.84200
C152        C  0.42965460  0.25686253  0.36039950     0.84500
O153        O  0.45366285  0.27256743  0.38046245    -0.80400
C154        C  0.00149475  0.07705108  0.38491655     0.03700
C155        C  0.01105029  0.07753349  0.33821621    -0.12400
C156        C  0.01577934  0.10365827  0.31463033     0.01200
C157        C  0.01114150  0.12957271  0.33859755    -0.11000
C158        C  0.00215179  0.12954101  0.38518499     0.03700
C159        C  0.99737699  0.10335350  0.40827925    -0.10400
H160        H  0.01415301  0.05745085  0.31994189     0.09300
H161        H  0.01413495  0.14994583  0.32105761     0.06800
H162        H  0.48967684  0.10357617  0.44409076     0.06700
C163        C  0.02469818  0.10384365  0.26496695     0.80800
N164        N  0.02886829  0.12910456  0.24205712    -0.77500
C165        C  0.03671180  0.12921186  0.19660160     0.83200
N166        N  0.04149061  0.10402214  0.17422466    -0.77500
C167        C  0.03809022  0.07877822  0.19681743     0.83300
N168        N  0.03014578  0.07872442  0.24219253    -0.79200
C169        C  0.04243494  0.01666171  0.11378794     0.03700
C170        C  0.07576900  0.50357525  0.12804452    -0.12400
C171        C  0.09659004  0.01549819  0.16377601     0.01200
C172        C  0.08313584  0.03954343  0.18707590    -0.11000
C173        C  0.04964323  0.05225960  0.17411954     0.03700
C174        C  0.02972327  0.04125305  0.13693842    -0.10400
H175        H  0.08654024  0.48504194  0.10998966     0.09300
H176        H  0.09926175  0.04884638  0.21465764     0.06800
H177        H  0.00445169  0.05189142  0.12614636     0.06700
C178        C  0.40991999  0.44039702  0.32069321     0.03700
C179        C  0.37472783  0.45114932  0.30873951    -0.12400
C180        C  0.35596725  0.44029305  0.27021541     0.01200
C181        C  0.37262622  0.41833524  0.24458587    -0.11000
C182        C  0.40669561  0.40667406  0.25763747     0.03700
C183        C  0.42559136  0.41791244  0.29533805    -0.10400
H184        H  0.36230420  0.46805332  0.32907407     0.09300
H185        H  0.35804959  0.40895071  0.21578739     0.06800
H186        H  0.45173154  0.40849427  0.30591783     0.06700
O187        O  0.43288953  0.41797026  0.49914823    -0.77900
C188        C  0.38375617  0.00464545  0.00706796     0.83100
O189        O  0.46125781  0.46272884  0.35663568    -0.79000
O190        O  0.48253602  0.04911531  0.44940646    -0.80500
O191        O  0.03042984  0.48065433  0.05845743    -0.80300
O192        O  0.48924143  0.41884254  0.03043966    -0.78900
Zn193      Zn  0.42877515  0.45606177  0.46538106     1.55700
O194        O  0.99814007  0.02135806  0.05370759    -0.80300
Cd195      Cd  0.01190808  0.45611909  0.00456551     1.59700
Cd196      Cd  0.49640613  0.48241100  0.40357929     1.59600
O197        O  0.05792921  0.44510517  0.46683905    -0.80300
O198        O  0.47536184  0.47759743  0.46666687    -1.90800
Cd199      Cd  0.46714885  0.01646397  0.49418363     1.59900
O200        O  0.04932462  0.46448190  0.39802923    -0.80300
O201        O  0.41128790  0.02182806  0.00836526    -0.78900
C202        C  0.42936609  0.45119800  0.36129988     0.83600
C203        C  0.45805162  0.40673915  0.02397883     0.83300
O204        O  0.38690007  0.47874747  0.49367298    -0.77900
C205        C  0.02233820  0.00558030  0.07333222     0.84100
O206        O  0.41394785  0.44817982  0.40016950    -0.78000
C207        C  0.06904070  0.45023249  0.42630238     0.84200
C208        C  0.49467298  0.04914889  0.40842808     0.84500
O209        O  0.00070442  0.02575901  0.38685158    -0.80400
C210        C  0.42986731  0.35416845  0.16786258     0.80800
N211        N  0.42624726  0.37954899  0.19043094    -0.77500
C212        C  0.41857579  0.37996352  0.23584734     0.83200
N213        N  0.41337309  0.35491938  0.25856856    -0.77500
C214        C  0.41623803  0.32952808  0.23625220     0.83300
N215        N  0.42402447  0.32920701  0.19087613    -0.79200
C216        C  0.45151519  0.32699534  0.04804809     0.03700
C217        C  0.44252250  0.32757187  0.09485219    -0.12400
C218        C  0.43817589  0.35376675  0.11821690     0.01200
C219        C  0.44254157  0.37959830  0.09400814    -0.11000
C220        C  0.45085807  0.37939564  0.04730800     0.03700
C221        C  0.45525950  0.35318791  0.02434296    -0.10400
H222        H  0.43967995  0.30754157  0.11336267     0.09300
H223        H  0.43986726  0.40004023  0.11141938     0.06800
H224        H  0.46250365  0.35331687  0.48838649     0.06700
C225        C  0.16044796  0.26573233  0.86236512     0.03700
C226        C  0.17511037  0.28906261  0.88688170    -0.12400
C227        C  0.15518783  0.30096762  0.92339751     0.01200
C228        C  0.12060852  0.28956697  0.93534025    -0.11000
C229        C  0.10570567  0.26630267  0.91123986     0.03700
C230        C  0.12572215  0.25431563  0.87474835    -0.10400
H231        H  0.20129909  0.29851351  0.87663201     0.09300
H232        H  0.10488052  0.29923126  0.96293646     0.06800
H233        H  0.11403670  0.23658922  0.85551635     0.06700
C234        C  0.29371041  0.18878969  0.56989440     0.03700
C235        C  0.27954575  0.16515919  0.54570950    -0.12400
C236        C  0.29802928  0.15484473  0.50711870     0.01200
C237        C  0.33110218  0.16761741  0.99296635    -0.11000
C238        C  0.34680677  0.19023931  0.51798294     0.03700
C239        C  0.32765179  0.20109797  0.55608516    -0.10400
H240        H  0.25422312  0.15471789  0.55676609     0.09300
H241        H  0.34574054  0.15861723  0.96392811     0.06800
H242        H  0.33942013  0.21877873  0.57532862     0.06700
O243        O  0.18304059  0.28775071  0.68362699    -0.77900
C244        C  0.13436606  0.20129456  0.67347784     0.83100
O245        O  0.21202825  0.24357149  0.82626936    -0.79000
O246        O  0.23097040  0.15667611  0.73319342    -0.80500
O247        O  0.28140351  0.22508413  0.62451935    -0.80300
O248        O  0.23891206  0.28662585  0.65110962    -0.78900
Zn249      Zn  0.17896530  0.24961984  0.71739107     1.55700
O250        O  0.24957292  0.18419245  0.62986018    -0.80300
Cd251      Cd  0.26187406  0.24965872  0.67770044     1.59700
Cd252      Cd  0.24656430  0.22338132  0.77892422     1.59600
O253        O  0.30754789  0.26107181  0.71537116    -0.80300
O254        O  0.22547985  0.22816769  0.71583851    -1.90800
Cd255      Cd  0.21734749  0.18937941  0.68800436     1.59900
O256        O  0.29992129  0.24077787  0.78371299    -0.80300
O257        O  0.16195168  0.18423175  0.67150078    -0.78900
C258        C  0.17999104  0.25487189  0.82174137     0.83600
C259        C  0.20786599  0.29882612  0.65810015     0.83300
O260        O  0.13729232  0.22686688  0.68849416    -0.77900
C261        C  0.27375275  0.19995757  0.61022958     0.84100
O262        O  0.16433008  0.25749961  0.78289889    -0.78000
C263        C  0.31915658  0.25550803  0.75551291     0.84200
C264        C  0.24276521  0.15662223  0.77428942     0.84500
O265        O  0.24952031  0.17998336  0.79566235    -0.80400
C266        C  0.18114752  0.35242194  0.51409038     0.80800
N267        N  0.17629916  0.37769572  0.99152220    -0.77500
C268        C  0.16797275  0.37791087  0.94627015     0.83200
N269        N  0.16339647  0.35274136  0.92368989    -0.77500
C270        C  0.16756369  0.32740573  0.94590532     0.83300
N271        N  0.17591529  0.32729127  0.99119634    -0.79200
C272        C  0.20058885  0.37842346  0.63496103     0.03700
C273        C  0.19346327  0.37834560  0.58784894    -0.12400
C274        C  0.18941295  0.35234181  0.56384127     0.01200
C275        C  0.19348215  0.32631976  0.58777164    -0.11000
C276        C  0.20055249  0.32622258  0.63492068     0.03700
C277        C  0.20367348  0.35231611  0.65861790    -0.10400
H278        H  0.19135856  0.39868434  0.57001058     0.09300
H279        H  0.19141965  0.30600859  0.56985372     0.06800
H280        H  0.21007699  0.35230472  0.69482785     0.06700
C281        C  0.15932614  0.43833186  0.86121223     0.03700
C282        C  0.17468090  0.41560769  0.88632728    -0.12400
C283        C  0.15583512  0.40453732  0.92422386     0.01200
C284        C  0.12204624  0.41662099  0.93765392    -0.11000
C285        C  0.10574091  0.43889954  0.91225205     0.03700
C286        C  0.12449102  0.44952460  0.87357590    -0.10400
H287        H  0.20064654  0.40598738  0.87556810     0.09300
H288        H  0.10749383  0.40747122  0.96664527     0.06800
H289        H  0.11238496  0.46669653  0.85349848     0.06700
C290        C  0.29243695  0.01599443  0.56892103     0.03700
C291        C  0.27919870  0.04030200  0.54549042    -0.12400
C292        C  0.29903770  0.05153749  0.50846552     0.01200
C293        C  0.33298119  0.03944367  0.99594926    -0.11000
C294        C  0.34693235  0.01564252  0.51938728     0.03700
C295        C  0.32620516  0.50340568  0.55500927    -0.10400
H296        H  0.25358243  0.05055940  0.55596442     0.09300
H297        H  0.34898177  0.04898331  0.96845549     0.06800
H298        H  0.33729444  0.48502905  0.57318348     0.06700
O299        O  0.13619023  0.47823811  0.68927179    -0.77900
C300        C  0.20775402  0.40584840  0.65815982     0.83100
O301        O  0.21068135  0.46093057  0.82570493    -0.79400
O302        O  0.30763381  0.44526914  0.71612484    -0.80500
O303        O  0.24813692  0.02054723  0.62895950    -0.80300
O304        O  0.16105194  0.02106073  0.67388032    -0.78900
Zn305      Zn  0.17816032  0.45516256  0.71674905     1.55700
O306        O  0.28021319  0.47976451  0.62392336    -0.80300
Cd307      Cd  0.21675540  0.01552128  0.68812853     1.59700
Cd308      Cd  0.24529807  0.48150210  0.77910452     1.59600
O309        O  0.23128341  0.04812242  0.73313509    -0.80300
O310        O  0.22475032  0.47667978  0.71573260    -1.90800
Cd311      Cd  0.26153383  0.45533333  0.67799381     1.59900
O312        O  0.24799046  0.02478627  0.79632805    -0.80300
O313        O  0.23920069  0.41773986  0.65242219    -0.78900
C314        C  0.17886976  0.44931674  0.82078343     0.83600
C315        C  0.13329415  0.00414737  0.67578028     0.83300
O316        O  0.18233728  0.41730373  0.68231804    -0.77900
C317        C  0.27228950  0.00477297  0.60925204     0.84100
O318        O  0.16346259  0.44662684  0.78184056    -0.78000
C319        C  0.24224824  0.04815877  0.77458503     0.84200
C320        C  0.31883847  0.45086103  0.75647806     0.84500
O321        O  0.29886432  0.46486310  0.78474803    -0.80400
C322        C  0.24846407  0.12873513  0.79814598     0.03700
C323        C  0.25846668  0.12843197  0.84455181    -0.12400
C324        C  0.26323503  0.10245848  0.86826944     0.01200
C325        C  0.25823016  0.07641745  0.84481234    -0.11000
C326        C  0.24820772  0.07604339  0.79835941     0.03700
C327        C  0.24335768  0.10237406  0.77527506    -0.10400
H328        H  0.26220753  0.14858752  0.86243964     0.09300
H329        H  0.26180146  0.05631592  0.86292260     0.06800
H330        H  0.23551336  0.10235367  0.73952598     0.06700
C331        C  0.27293382  0.10263505  0.91757662     0.80800
N332        N  0.27778588  0.12794559  0.93997379    -0.77500
C333        C  0.28636820  0.12822121  0.98511960     0.83200
N334        N  0.29111779  0.10317078  0.50781812    -0.77500
C335        C  0.28705035  0.07785058  0.98571069     0.83300
N336        N  0.27841721  0.07757837  0.94052498    -0.79200
C337        C  0.04265605  0.19060540  0.61238821     0.03700
C338        C  0.02816355  0.16740193  0.63741119    -0.12400
C339        C  0.04832012  0.15579497  0.67401848     0.01200
C340        C  0.08288580  0.16731908  0.68546879    -0.11000
C341        C  0.09759183  0.19038332  0.66081761     0.03700
C342        C  0.07740667  0.20213884  0.62431445    -0.10400
H343        H  0.00200066  0.15778246  0.62743237     0.09300
H344        H  0.09884333  0.15782166  0.71302175     0.06800
H345        H  0.08897878  0.21976079  0.60472425     0.06700
C346        C  0.40924085  0.26844961  0.82065119     0.03700
C347        C  0.42284526  0.29257285  0.79715201    -0.12400
C348        C  0.40393314  0.30324620  0.75908117     0.01200
C349        C  0.37085311  0.29036880  0.74496727    -0.11000
C350        C  0.35572280  0.26716536  0.76928716     0.03700
C351        C  0.37537045  0.25600658  0.80679581    -0.10400
H352        H  0.44824821  0.30294334  0.80808765     0.09300
H353        H  0.35598387  0.29947931  0.71617759     0.06800
H354        H  0.36409365  0.23789423  0.82546797     0.06700
O355        O  0.03858096  0.19863652  0.53287437    -0.77900
C356        C  0.49493362  0.15704963  0.90828723     0.83100
O357        O  0.04135858  0.27251399  0.92302179    -0.79000
O358        O  0.42235901  0.23150609  0.87396570    -0.80500
O359        O  0.40327107  0.21526558  0.53340313    -0.80300
O360        O  0.49093824  0.21255776  0.57636668    -0.78900
Zn361      Zn  0.02418582  0.20656178  0.96720373     1.55700
O362        O  0.39515812  0.19610393  0.96434497    -0.80300
Cd363      Cd  0.45641184  0.23259018  0.52897541     1.59700
Cd364      Cd  0.48574188  0.26698015  0.93868452     1.59600
O365        O  0.45209361  0.27577009  0.54614590    -0.80300
O366        O  0.47766383  0.22802073  0.96585486    -1.90800
Cd367      Cd  0.44138845  0.20671725  0.92725949     1.59900
O368        O  0.47074648  0.29922175  0.98388712    -0.80300
O369        O  0.46384179  0.16924574  0.90148412    -0.78900
C370        C  0.06892108  0.25537425  0.92427050     0.83600
C371        C  0.02296417  0.20126976  0.57175751     0.83300
O372        O  0.01999270  0.16832360  0.93330368    -0.77900
C373        C  0.38366748  0.20134307  0.50463446     0.84100
O374        O  0.06590976  0.22958432  0.93841936    -0.78000
C375        C  0.45834002  0.29916011  0.52469438     0.84200
C376        C  0.42965457  0.25686251  0.86039953     0.84500
O377        O  0.45366284  0.27256746  0.88046246    -0.80400
C378        C  0.00149462  0.07705109  0.88491662     0.03700
C379        C  0.01105034  0.07753349  0.83821625    -0.12400
C380        C  0.01577941  0.10365826  0.81463039     0.01200
C381        C  0.01114155  0.12957272  0.83859758    -0.11000
C382        C  0.00215167  0.12954102  0.88518505     0.03700
C383        C  0.99737681  0.10335352  0.90827900    -0.10400
H384        H  0.01415315  0.05745085  0.81994200     0.09300
H385        H  0.01413508  0.14994582  0.82105774     0.06800
H386        H  0.48967665  0.10357621  0.94409185     0.06700
C387        C  0.02469821  0.10384365  0.76496697     0.80800
N388        N  0.02886820  0.12910453  0.74205713    -0.77500
C389        C  0.03671177  0.12921189  0.69660162     0.83200
N390        N  0.04149069  0.10402215  0.67422468    -0.77500
C391        C  0.03809026  0.07877825  0.69681740     0.83300
N392        N  0.03014583  0.07872440  0.74219251    -0.79200
C393        C  0.04243493  0.01666164  0.61378802     0.03700
C394        C  0.07576898  0.50357534  0.62804462    -0.12400
C395        C  0.09659003  0.01549815  0.66377611     0.01200
C396        C  0.08313581  0.03954342  0.68707608    -0.11000
C397        C  0.04964326  0.05225961  0.67411950     0.03700
C398        C  0.02972326  0.04125306  0.63693843    -0.10400
H399        H  0.08654044  0.48504177  0.60998944     0.09300
H400        H  0.09926149  0.04884626  0.71465760     0.06800
H401        H  0.00445186  0.05189135  0.62614638     0.06700
C402        C  0.40992004  0.44039701  0.82069317     0.03700
C403        C  0.37472783  0.45114942  0.80873953    -0.12400
C404        C  0.35596731  0.44029306  0.77021529     0.01200
C405        C  0.37262628  0.41833528  0.74458594    -0.11000
C406        C  0.40669562  0.40667403  0.75763750     0.03700
C407        C  0.42559124  0.41791239  0.79533816    -0.10400
H408        H  0.36230449  0.46805303  0.82907362     0.09300
H409        H  0.35804939  0.40895056  0.71578698     0.06800
H410        H  0.45173179  0.40849398  0.80591818     0.06700
O411        O  0.43288956  0.41797024  0.99914803    -0.77900
C412        C  0.38375619  0.00464547  0.50706800     0.83100
O413        O  0.46125783  0.46272885  0.85663566    -0.79000
O414        O  0.48253604  0.04911530  0.94940656    -0.80500
O415        O  0.03042986  0.48065437  0.55845749    -0.80300
O416        O  0.48924145  0.41884255  0.53043973    -0.78900
Zn417      Zn  0.42877518  0.45606180  0.96538090     1.55700
O418        O  0.99813999  0.02135800  0.55370769    -0.80300
Cd419      Cd  0.01190811  0.45611911  0.50456559     1.59700
Cd420      Cd  0.49640620  0.48241100  0.90357933     1.59600
O421        O  0.05792921  0.44510518  0.96683894    -0.80300
O422        O  0.47536193  0.47759744  0.96666691    -1.90800
Cd423      Cd  0.46714890  0.01646385  0.99418367     1.59900
O424        O  0.04932454  0.46448171  0.89802900    -0.80300
O425        O  0.41128786  0.02182812  0.50836533    -0.78900
C426        C  0.42936609  0.45119802  0.86129983     0.83600
C427        C  0.45805165  0.40673915  0.52397893     0.83300
O428        O  0.38690000  0.47874746  0.99367298    -0.77900
C429        C  0.02233811  0.00558026  0.57333234     0.84100
O430        O  0.41394782  0.44817987  0.90016940    -0.78000
C431        C  0.06904066  0.45023241  0.92630223     0.84200
C432        C  0.49467297  0.04914890  0.90842815     0.84500
O433        O  0.00070429  0.02575903  0.88685164    -0.80400
C434        C  0.42986739  0.35416843  0.66786264     0.80800
N435        N  0.42624734  0.37954900  0.69043099    -0.77500
C436        C  0.41857585  0.37996349  0.73584740     0.83200
N437        N  0.41337319  0.35491938  0.75856859    -0.77500
C438        C  0.41623808  0.32952805  0.73625227     0.83300
N439        N  0.42402452  0.32920703  0.69087614    -0.79200
C440        C  0.45151509  0.32699531  0.54804808     0.03700
C441        C  0.44252254  0.32757188  0.59485225    -0.12400
C442        C  0.43817598  0.35376674  0.61821692     0.01200
C443        C  0.44254163  0.37959844  0.59400832    -0.11000
C444        C  0.45085812  0.37939561  0.54730800     0.03700
C445        C  0.45525935  0.35318791  0.52434315    -0.10400
H446        H  0.43968008  0.30754157  0.61336276     0.09300
H447        H  0.43986747  0.40003955  0.61141881     0.06800
H448        H  0.46250361  0.35331690  0.98838737     0.06700
C449        C  0.16044808  0.76573233  0.36236520     0.03700
C450        C  0.17511029  0.78906260  0.38688183    -0.12400
C451        C  0.15518779  0.80096769  0.42339745     0.01200
C452        C  0.12060843  0.78956706  0.43534029    -0.11000
C453        C  0.10570571  0.76630268  0.41123993     0.03700
C454        C  0.12572226  0.75431561  0.37474853    -0.10400
H455        H  0.20129973  0.79851376  0.37663193     0.09300
H456        H  0.10488060  0.79923129  0.46293612     0.06800
H457        H  0.11403681  0.73658912  0.35551645     0.06700
C458        C  0.29371035  0.68878978  0.06989428     0.03700
C459        C  0.27954574  0.66515924  0.04570939    -0.12400
C460        C  0.29802925  0.65484472  0.00711866     0.01200
C461        C  0.33110214  0.66761742  0.49296665    -0.11000
C462        C  0.34680668  0.69023936  0.01798277     0.03700
C463        C  0.32765174  0.70109803  0.05608499    -0.10400
H464        H  0.25422306  0.65471792  0.05676603     0.09300
H465        H  0.34574086  0.65861700  0.46392779     0.06800
H466        H  0.33942011  0.71877882  0.07532849     0.06700
O467        O  0.18304070  0.78775062  0.18362699    -0.77900
C468        C  0.13436604  0.70129463  0.17347774     0.83100
O469        O  0.21202825  0.74357136  0.32626934    -0.79000
O470        O  0.23097036  0.65667614  0.23319347    -0.80500
O471        O  0.28140349  0.72508420  0.12451939    -0.80300
O472        O  0.23891213  0.78662593  0.15110955    -0.78900
Zn473      Zn  0.17896528  0.74961975  0.21739101     1.55700
O474        O  0.24957295  0.68419250  0.12986022    -0.80300
Cd475      Cd  0.26187398  0.74965877  0.17770038     1.59700
Cd476      Cd  0.24656446  0.72338137  0.27892416     1.59600
O477        O  0.30754786  0.76107172  0.21537115    -0.80300
O478        O  0.22547984  0.72816767  0.21583849    -1.90800
Cd479      Cd  0.21734745  0.68937944  0.18800447     1.59900
O480        O  0.29992138  0.74077795  0.28371312    -0.80300
O481        O  0.16195166  0.68423182  0.17150073    -0.78900
C482        C  0.17999110  0.75487188  0.32174138     0.83600
C483        C  0.20786606  0.79882614  0.15810021     0.83300
O484        O  0.13729227  0.72686693  0.18849407    -0.77900
C485        C  0.27375273  0.69995763  0.11022957     0.84100
O486        O  0.16433018  0.75749969  0.28289887    -0.78000
C487        C  0.31915661  0.75550807  0.25551288     0.84200
C488        C  0.24276529  0.65662224  0.27428940     0.84500
O489        O  0.24952053  0.67998338  0.29566228    -0.80400
C490        C  0.18114738  0.85242193  0.01409042     0.80800
N491        N  0.17629926  0.87769565  0.49152231    -0.77500
C492        C  0.16797269  0.87791085  0.44627025     0.83200
N493        N  0.16339634  0.85274138  0.42369001    -0.77500
C494        C  0.16756366  0.82740573  0.44590529     0.83300
N495        N  0.17591544  0.82729119  0.49119630    -0.79200
C496        C  0.20058879  0.87842350  0.13496104     0.03700
C497        C  0.19346317  0.87834560  0.08784894    -0.12400
C498        C  0.18941286  0.85234180  0.06384130     0.01200
C499        C  0.19348208  0.82631965  0.08777162    -0.11000
C500        C  0.20055243  0.82622262  0.13492077     0.03700
C501        C  0.20367342  0.85231615  0.15861790    -0.10400
H502        H  0.19135842  0.89868429  0.07001057     0.09300
H503        H  0.19141968  0.80600902  0.06985426     0.06800
H504        H  0.21007697  0.85230479  0.19482792     0.06700
C505        C  0.15932620  0.93833183  0.36121229     0.03700
C506        C  0.17468107  0.91560760  0.38632737    -0.12400
C507        C  0.15583509  0.90453734  0.42422400     0.01200
C508        C  0.12204621  0.91662099  0.43765394    -0.11000
C509        C  0.10574091  0.93889958  0.41225204     0.03700
C510        C  0.12449111  0.94952447  0.37357592    -0.10400
H511        H  0.20064603  0.90598753  0.37556851     0.09300
H512        H  0.10749379  0.90747128  0.46664521     0.06800
H513        H  0.11238476  0.96669679  0.35349792     0.06700
C514        C  0.29243687  0.51599443  0.06892104     0.03700
C515        C  0.27919865  0.54030201  0.04549040    -0.12400
C516        C  0.29903768  0.55153751  0.00846553     0.01200
C517        C  0.33298131  0.53944374  0.49594921    -0.11000
C518        C  0.34693236  0.51564260  0.01938730     0.03700
C519        C  0.32620504  0.00340572  0.05500925    -0.10400
H520        H  0.25358231  0.55055944  0.05596439     0.09300
H521        H  0.34898146  0.54898317  0.46845610     0.06800
H522        H  0.33729441  0.98502899  0.07318362     0.06700
O523        O  0.13619020  0.97823809  0.18927170    -0.77900
C524        C  0.20775396  0.90584844  0.15815990     0.83100
O525        O  0.21068137  0.96093057  0.32570485    -0.79400
O526        O  0.30763382  0.94526901  0.21612493    -0.80500
O527        O  0.24813694  0.52054722  0.12895963    -0.80300
O528        O  0.16105197  0.52106072  0.17388023    -0.78900
Zn529      Zn  0.17816025  0.95516248  0.21674923     1.55700
O530        O  0.28021319  0.97976453  0.12392338    -0.80300
Cd531      Cd  0.21675550  0.51552119  0.18812853     1.59700
Cd532      Cd  0.24529804  0.98150216  0.27910448     1.59600
O533        O  0.23128342  0.54812242  0.23313505    -0.80300
O534        O  0.22475027  0.97667982  0.21573269    -1.90800
Cd535      Cd  0.26153394  0.95533338  0.17799401     1.59900
O536        O  0.24799043  0.52478629  0.29632803    -0.80300
O537        O  0.23920064  0.91773991  0.15242238    -0.78900
C538        C  0.17886982  0.94931666  0.32078347     0.83600
C539        C  0.13329415  0.50414733  0.17578015     0.83300
O540        O  0.18233722  0.91730371  0.18231819    -0.77900
C541        C  0.27228946  0.50477294  0.10925213     0.84100
O542        O  0.16346255  0.94662672  0.28184068    -0.78000
C543        C  0.24224823  0.54815877  0.27458503     0.84200
C544        C  0.31883845  0.95086091  0.25647806     0.84500
O545        O  0.29886426  0.96486304  0.28474804    -0.80400
C546        C  0.24846410  0.62873515  0.29814600     0.03700
C547        C  0.25846684  0.62843188  0.34455168    -0.12400
C548        C  0.26323519  0.60245850  0.36826942     0.01200
C549        C  0.25823014  0.57641744  0.34481233    -0.11000
C550        C  0.24820766  0.57604340  0.29835944     0.03700
C551        C  0.24335757  0.60237405  0.27527490    -0.10400
H552        H  0.26220788  0.64858788  0.36243985     0.09300
H553        H  0.26180139  0.55631590  0.36292264     0.06800
H554        H  0.23551346  0.60235368  0.23952686     0.06700
C555        C  0.27293392  0.60263497  0.41757661     0.80800
N556        N  0.27778584  0.62794558  0.43997389    -0.77500
C557        C  0.28636814  0.62822115  0.48511970     0.83200
N558        N  0.29111777  0.60317075  0.00781808    -0.77500
C559        C  0.28705029  0.57785050  0.48571071     0.83300
N560        N  0.27841721  0.57757834  0.44052499    -0.79200
C561        C  0.04265605  0.69060537  0.11238819     0.03700
C562        C  0.02816382  0.66740197  0.13741119    -0.12400
C563        C  0.04832018  0.65579492  0.17401842     0.01200
C564        C  0.08288576  0.66731917  0.18546861    -0.11000
C565        C  0.09759182  0.69038336  0.16081762     0.03700
C566        C  0.07740662  0.70213890  0.12431450    -0.10400
H567        H  0.00199977  0.65778204  0.12743194     0.09300
H568        H  0.09884391  0.65782138  0.21302255     0.06800
H569        H  0.08897871  0.71976094  0.10472424     0.06700
C570        C  0.40924087  0.76844963  0.32065114     0.03700
C571        C  0.42284533  0.79257281  0.29715181    -0.12400
C572        C  0.40393317  0.80324617  0.25908110     0.01200
C573        C  0.37085298  0.79036892  0.24496704    -0.11000
C574        C  0.35572281  0.76716538  0.26928715     0.03700
C575        C  0.37537055  0.75600670  0.30679561    -0.10400
H576        H  0.44824846  0.80294329  0.30808748     0.09300
H577        H  0.35598423  0.79947910  0.21617853     0.06800
H578        H  0.36409347  0.73789380  0.32546825     0.06700
O579        O  0.03858096  0.69863659  0.03287439    -0.77900
C580        C  0.49493361  0.65704964  0.40828715     0.83100
O581        O  0.04135856  0.77251404  0.42302169    -0.79000
O582        O  0.42235898  0.73150616  0.37396568    -0.80500
O583        O  0.40327101  0.71526549  0.03340306    -0.80300
O584        O  0.49093835  0.71255781  0.07636688    -0.78900
Zn585      Zn  0.02418595  0.70656171  0.46720365     1.55700
O586        O  0.39515813  0.69610383  0.46434508    -0.80300
Cd587      Cd  0.45641181  0.73259008  0.02897559     1.59700
Cd588      Cd  0.48574200  0.76698019  0.43868447     1.59600
O589        O  0.45209377  0.77577010  0.04614585    -0.80300
O590        O  0.47766384  0.72802068  0.46585469    -1.90800
Cd591      Cd  0.44138837  0.70671729  0.42725941     1.59900
O592        O  0.47074668  0.79922178  0.48388727    -0.80300
O593        O  0.46384179  0.66924579  0.40148407    -0.78900
C594        C  0.06892107  0.75537427  0.42427046     0.83600
C595        C  0.02296421  0.70126979  0.07175754     0.83300
O596        O  0.01999272  0.66832362  0.43330359    -0.77900
C597        C  0.38366744  0.70134304  0.00463431     0.84100
O598        O  0.06590973  0.72958434  0.43841927    -0.78000
C599        C  0.45833999  0.79916013  0.02469433     0.84200
C600        C  0.42965459  0.75686260  0.36039952     0.84500
O601        O  0.45366284  0.77256753  0.38046245    -0.80400
C602        C  0.00149475  0.57705107  0.38491654     0.03700
C603        C  0.01105031  0.57753338  0.33821611    -0.12400
C604        C  0.01577934  0.60365826  0.31463034     0.01200
C605        C  0.01114150  0.62957272  0.33859753    -0.11000
C606        C  0.00215178  0.62954101  0.38518500     0.03700
C607        C  0.99737699  0.60335348  0.40827924    -0.10400
H608        H  0.01415295  0.55745126  0.31994228     0.09300
H609        H  0.01413493  0.64994566  0.32105775     0.06800
H610        H  0.48967685  0.60357615  0.44409074     0.06700
C611        C  0.02469818  0.60384366  0.26496696     0.80800
N612        N  0.02886829  0.62910454  0.24205712    -0.77500
C613        C  0.03671181  0.62921187  0.19660159     0.83200
N614        N  0.04149061  0.60402210  0.17422467    -0.77500
C615        C  0.03809023  0.57877821  0.19681744     0.83300
N616        N  0.03014579  0.57872440  0.24219254    -0.79200
C617        C  0.04243492  0.51666167  0.11378797     0.03700
C618        C  0.07576897  0.00357541  0.12804460    -0.12400
C619        C  0.09659003  0.51549814  0.16377602     0.01200
C620        C  0.08313583  0.53954335  0.18707591    -0.11000
C621        C  0.04964327  0.55225957  0.17411954     0.03700
C622        C  0.02972325  0.54125306  0.13693836    -0.10400
H623        H  0.08654050  0.98504159  0.10998926     0.09300
H624        H  0.09926174  0.54884629  0.21465770     0.06800
H625        H  0.00445206  0.55189130  0.12614647     0.06700
C626        C  0.40991998  0.94039698  0.32069325     0.03700
C627        C  0.37472790  0.95114919  0.30873943    -0.12400
C628        C  0.35596727  0.94029302  0.27021541     0.01200
C629        C  0.37262622  0.91833518  0.24458585    -0.11000
C630        C  0.40669563  0.90667405  0.25763745     0.03700
C631        C  0.42559143  0.91791236  0.29533808    -0.10400
H632        H  0.36230392  0.96805364  0.32907452     0.09300
H633        H  0.35804961  0.90895068  0.21578756     0.06800
H634        H  0.45173126  0.90849433  0.30591770     0.06700
O635        O  0.43288954  0.91797032  0.49914826    -0.77900
C636        C  0.38375618  0.50464549  0.00706794     0.83100
O637        O  0.46125776  0.96272894  0.35663567    -0.79000
O638        O  0.48253601  0.54911532  0.44940647    -0.80500
O639        O  0.03042989  0.98065437  0.05845743    -0.80300
O640        O  0.48924148  0.91884251  0.03043962    -0.78900
Zn641      Zn  0.42877516  0.95606183  0.46538105     1.55700
O642        O  0.99814011  0.52135807  0.05370758    -0.80300
Cd643      Cd  0.01190808  0.95611915  0.00456552     1.59700
Cd644      Cd  0.49640613  0.98241107  0.40357928     1.59600
O645        O  0.05792923  0.94510524  0.46683908    -0.80300
O646        O  0.47536184  0.97759753  0.46666687    -1.90800
Cd647      Cd  0.46714887  0.51646389  0.49418362     1.59900
O648        O  0.04932457  0.96448182  0.39802917    -0.80300
O649        O  0.41128793  0.52182807  0.00836529    -0.78900
C650        C  0.42936610  0.95119799  0.36129987     0.83600
C651        C  0.45805164  0.90673915  0.02397882     0.83300
O652        O  0.38690009  0.97874745  0.49367301    -0.77900
C653        C  0.02233819  0.50558025  0.07333223     0.84100
O654        O  0.41394788  0.94817976  0.40016951    -0.78000
C655        C  0.06904070  0.95023248  0.42630238     0.84200
C656        C  0.49467298  0.54914887  0.40842808     0.84500
O657        O  0.00070440  0.52575897  0.38685163    -0.80400
C658        C  0.42986732  0.85416844  0.16786258     0.80800
N659        N  0.42624727  0.87954896  0.19043094    -0.77500
C660        C  0.41857580  0.87996351  0.23584732     0.83200
N661        N  0.41337310  0.85491935  0.25856857    -0.77500
C662        C  0.41623804  0.82952808  0.23625221     0.83300
N663        N  0.42402447  0.82920699  0.19087614    -0.79200
C664        C  0.45151506  0.82699533  0.04804807     0.03700
C665        C  0.44252244  0.82757177  0.09485226    -0.12400
C666        C  0.43817589  0.85376671  0.11821689     0.01200
C667        C  0.44254155  0.87959838  0.09400825    -0.11000
C668        C  0.45085803  0.87939562  0.04730800     0.03700
C669        C  0.45525945  0.85318792  0.02434297    -0.10400
H670        H  0.43968003  0.80754190  0.11336230     0.09300
H671        H  0.43986734  0.90003970  0.11141895     0.06800
H672        H  0.46250364  0.85331690  0.48838657     0.06700
C673        C  0.16044798  0.76573234  0.86236514     0.03700
C674        C  0.17511043  0.78906267  0.88688166    -0.12400
C675        C  0.15518778  0.80096765  0.92339747     0.01200
C676        C  0.12060855  0.78956694  0.93534027    -0.11000
C677        C  0.10570567  0.76630267  0.91123986     0.03700
C678        C  0.12572216  0.75431567  0.87474831    -0.10400
H679        H  0.20129877  0.79851346  0.87663213     0.09300
H680        H  0.10488054  0.79923122  0.96293667     0.06800
H681        H  0.11403666  0.73658925  0.85551623     0.06700
C682        C  0.29371034  0.68878976  0.56989434     0.03700
C683        C  0.27954570  0.66515924  0.54570945    -0.12400
C684        C  0.29802924  0.65484472  0.50711874     0.01200
C685        C  0.33110213  0.66761747  0.99296635    -0.11000
C686        C  0.34680677  0.69023925  0.51798297     0.03700
C687        C  0.32765176  0.70109801  0.55608510    -0.10400
H688        H  0.25422303  0.65471794  0.55676611     0.09300
H689        H  0.34574053  0.65861726  0.96392806     0.06800
H690        H  0.33942007  0.71877872  0.57532850     0.06700
O691        O  0.18304060  0.78775065  0.68362696    -0.77900
C692        C  0.13436602  0.70129466  0.67347782     0.83100
O693        O  0.21202821  0.74357140  0.82626935    -0.79000
O694        O  0.23097037  0.65667617  0.73319343    -0.80500
O695        O  0.28140350  0.72508420  0.62451936    -0.80300
O696        O  0.23891209  0.78662594  0.65110965    -0.78900
Zn697      Zn  0.17896532  0.74961977  0.71739108     1.55700
O698        O  0.24957288  0.68419253  0.62986021    -0.80300
Cd699      Cd  0.26187404  0.74965879  0.67770044     1.59700
Cd700      Cd  0.24656430  0.72338125  0.77892422     1.59600
O701        O  0.30754793  0.76107171  0.71537113    -0.80300
O702        O  0.22547986  0.72816765  0.71583851    -1.90800
Cd703      Cd  0.21734732  0.68937947  0.68800435     1.59900
O704        O  0.29992125  0.74077789  0.78371304    -0.80300
O705        O  0.16195161  0.68423183  0.67150077    -0.78900
C706        C  0.17999106  0.75487190  0.82174137     0.83600
C707        C  0.20786600  0.79882615  0.65810018     0.83300
O708        O  0.13729230  0.72686695  0.68849417    -0.77900
C709        C  0.27375272  0.69995762  0.61022959     0.84100
O710        O  0.16433011  0.75749969  0.78289889    -0.78000
C711        C  0.31915659  0.75550797  0.75551290     0.84200
C712        C  0.24276521  0.65662224  0.77428940     0.84500
O713        O  0.24952033  0.67998337  0.79566239    -0.80400
C714        C  0.18114752  0.85242193  0.51409038     0.80800
N715        N  0.17629916  0.87769567  0.99152225    -0.77500
C716        C  0.16797274  0.87791086  0.94627019     0.83200
N717        N  0.16339646  0.85274138  0.92368989    -0.77500
C718        C  0.16756367  0.82740572  0.94590528     0.83300
N719        N  0.17591529  0.82729122  0.99119630    -0.79200
C720        C  0.20058886  0.87842349  0.63496102     0.03700
C721        C  0.19346326  0.87834571  0.58784881    -0.12400
C722        C  0.18941296  0.85234178  0.56384130     0.01200
C723        C  0.19348214  0.82631967  0.58777159    -0.11000
C724        C  0.20055246  0.82622262  0.63492074     0.03700
C725        C  0.20367348  0.85231616  0.65861789    -0.10400
H726        H  0.19135861  0.89868380  0.57001102     0.09300
H727        H  0.19141971  0.80600901  0.56985421     0.06800
H728        H  0.21007699  0.85230479  0.69482780     0.06700
C729        C  0.15932616  0.93833185  0.86121223     0.03700
C730        C  0.17468091  0.91560764  0.88632728    -0.12400
C731        C  0.15583512  0.90453735  0.92422392     0.01200
C732        C  0.12204626  0.91662106  0.93765398    -0.11000
C733        C  0.10574092  0.93889960  0.91225204     0.03700
C734        C  0.12449104  0.94952456  0.87357587    -0.10400
H735        H  0.20064639  0.90598733  0.87556808     0.09300
H736        H  0.10749386  0.90747133  0.96664532     0.06800
H737        H  0.11238487  0.96669658  0.85349821     0.06700
C738        C  0.29243693  0.51599439  0.56892100     0.03700
C739        C  0.27919868  0.54030200  0.54549045    -0.12400
C740        C  0.29903768  0.55153748  0.50846554     0.01200
C741        C  0.33298122  0.53944374  0.99594929    -0.11000
C742        C  0.34693238  0.51564256  0.51938734     0.03700
C743        C  0.32620515  0.00340573  0.55500933    -0.10400
H744        H  0.25358264  0.55055932  0.55596438     0.09300
H745        H  0.34898179  0.54898341  0.96845550     0.06800
H746        H  0.33729455  0.98502901  0.57318373     0.06700
O747        O  0.13619020  0.97823807  0.68927178    -0.77900
C748        C  0.20775403  0.90584845  0.65815980     0.83100
O749        O  0.21068131  0.96093064  0.82570491    -0.79400
O750        O  0.30763368  0.94526903  0.71612487    -0.80500
O751        O  0.24813695  0.52054721  0.62895952    -0.80300
O752        O  0.16105193  0.52106077  0.67388030    -0.78900
Zn753      Zn  0.17816032  0.95516250  0.71674905     1.55700
O754        O  0.28021325  0.97976456  0.62392339    -0.80300
Cd755      Cd  0.21675540  0.51552122  0.68812853     1.59700
Cd756      Cd  0.24529808  0.98150216  0.77910452     1.59600
O757        O  0.23128341  0.54812243  0.73313506    -0.80300
O758        O  0.22475030  0.97667985  0.71573261    -1.90800
Cd759      Cd  0.26153381  0.95533341  0.67799381     1.59900
O760        O  0.24799044  0.52478626  0.79632801    -0.80300
O761        O  0.23920069  0.91773993  0.65242218    -0.78900
C762        C  0.17886978  0.94931671  0.82078343     0.83600
C763        C  0.13329415  0.50414736  0.67578025     0.83300
O764        O  0.18233729  0.91730375  0.68231802    -0.77900
C765        C  0.27228949  0.50477292  0.60925203     0.84100
O766        O  0.16346262  0.94662672  0.78184056    -0.78000
C767        C  0.24224824  0.54815876  0.77458502     0.84200
C768        C  0.31883840  0.95086094  0.75647805     0.84500
O769        O  0.29886429  0.96486304  0.78474805    -0.80400
C770        C  0.24846408  0.62873515  0.79814600     0.03700
C771        C  0.25846669  0.62843190  0.84455181    -0.12400
C772        C  0.26323502  0.60245845  0.86826945     0.01200
C773        C  0.25823016  0.57641739  0.84481235    -0.11000
C774        C  0.24820772  0.57604340  0.79835939     0.03700
C775        C  0.24335768  0.60237406  0.77527506    -0.10400
H776        H  0.26220758  0.64858765  0.86243982     0.09300
H777        H  0.26180143  0.55631598  0.86292247     0.06800
H778        H  0.23551337  0.60235371  0.73952601     0.06700
C779        C  0.27293377  0.60263496  0.91757668     0.80800
N780        N  0.27778570  0.62794553  0.93997386    -0.77500
C781        C  0.28636816  0.62822115  0.98511970     0.83200
N782        N  0.29111778  0.60317076  0.50781811    -0.77500
C783        C  0.28705033  0.57785051  0.98571074     0.83300
N784        N  0.27841722  0.57757831  0.94052497    -0.79200
C785        C  0.04265604  0.69060540  0.61238821     0.03700
C786        C  0.02816364  0.66740199  0.63741119    -0.12400
C787        C  0.04832014  0.65579496  0.67401844     0.01200
C788        C  0.08288578  0.66731917  0.68546871    -0.11000
C789        C  0.09759180  0.69038338  0.66081765     0.03700
C790        C  0.07740672  0.70213897  0.62431434    -0.10400
H791        H  0.00200027  0.65778236  0.62743224     0.09300
H792        H  0.09884355  0.65782160  0.71302208     0.06800
H793        H  0.08897848  0.71976042  0.60472470     0.06700
C794        C  0.40924082  0.76844964  0.82065123     0.03700
C795        C  0.42284522  0.79257280  0.79715193    -0.12400
C796        C  0.40393317  0.80324614  0.75908110     0.01200
C797        C  0.37085316  0.79036871  0.74496728    -0.11000
C798        C  0.35572281  0.76716529  0.76928714     0.03700
C799        C  0.37537048  0.75600666  0.80679578    -0.10400
H800        H  0.44824856  0.80294345  0.80808775     0.09300
H801        H  0.35598369  0.79947932  0.71617726     0.06800
H802        H  0.36409339  0.73789387  0.82546846     0.06700
O803        O  0.03858096  0.69863658  0.53287438    -0.77900
C804        C  0.49493361  0.65704965  0.90828722     0.83100
O805        O  0.04135859  0.77251400  0.92302182    -0.79000
O806        O  0.42235886  0.73150620  0.87396579    -0.80500
O807        O  0.40327109  0.71526547  0.53340314    -0.80300
O808        O  0.49093826  0.71255781  0.57636672    -0.78900
Zn809      Zn  0.02418582  0.70656172  0.96720373     1.55700
O810        O  0.39515813  0.69610389  0.96434496    -0.80300
Cd811      Cd  0.45641183  0.73259011  0.52897540     1.59700
Cd812      Cd  0.48574188  0.76698021  0.93868453     1.59600
O813        O  0.45209362  0.77577010  0.54614584    -0.80300
O814        O  0.47766386  0.72802071  0.96585485    -1.90800
Cd815      Cd  0.44138842  0.70671732  0.92725947     1.59900
O816        O  0.47074647  0.79922181  0.98388714    -0.80300
O817        O  0.46384180  0.66924581  0.90148410    -0.78900
C818        C  0.06892109  0.75537423  0.92427050     0.83600
C819        C  0.02296420  0.70126983  0.57175751     0.83300
O820        O  0.01999270  0.66832362  0.93330366    -0.77900
C821        C  0.38366750  0.70134296  0.50463447     0.84100
O822        O  0.06590974  0.72958429  0.93841932    -0.78000
C823        C  0.45834002  0.79916014  0.52469437     0.84200
C824        C  0.42965451  0.75686259  0.86039957     0.84500
O825        O  0.45366283  0.77256752  0.88046244    -0.80400
C826        C  0.00149464  0.57705106  0.88491659     0.03700
C827        C  0.01105036  0.57753339  0.83821615    -0.12400
C828        C  0.01577941  0.60365825  0.81463040     0.01200
C829        C  0.01114155  0.62957273  0.83859758    -0.11000
C830        C  0.00215166  0.62954100  0.88518507     0.03700
C831        C  0.99737681  0.60335348  0.90827899    -0.10400
H832        H  0.01415310  0.55745118  0.81994231     0.09300
H833        H  0.01413506  0.64994564  0.82105790     0.06800
H834        H  0.48967667  0.60357614  0.94409179     0.06700
C835        C  0.02469821  0.60384368  0.76496697     0.80800
N836        N  0.02886820  0.62910455  0.74205712    -0.77500
C837        C  0.03671179  0.62921191  0.69660160     0.83200
N838        N  0.04149069  0.60402214  0.67422468    -0.77500
C839        C  0.03809027  0.57877826  0.69681742     0.83300
N840        N  0.03014584  0.57872442  0.74219253    -0.79200
C841        C  0.04243492  0.51666168  0.61378802     0.03700
C842        C  0.07576896  0.00357548  0.62804473    -0.12400
C843        C  0.09659000  0.51549813  0.66377614     0.01200
C844        C  0.08313577  0.53954334  0.68707603    -0.11000
C845        C  0.04964329  0.55225961  0.67411954     0.03700
C846        C  0.02972325  0.54125310  0.63693838    -0.10400
H847        H  0.08654079  0.98504129  0.60998894     0.09300
H848        H  0.09926169  0.54884629  0.71465793     0.06800
H849        H  0.00445212  0.55189132  0.62614650     0.06700
C850        C  0.40991998  0.94039700  0.82069318     0.03700
C851        C  0.37472778  0.95114937  0.80873953    -0.12400
C852        C  0.35596728  0.94029303  0.77021526     0.01200
C853        C  0.37262625  0.91833522  0.74458585    -0.11000
C854        C  0.40669564  0.90667403  0.75763749     0.03700
C855        C  0.42559137  0.91791238  0.79533817    -0.10400
H856        H  0.36230437  0.96805297  0.82907369     0.09300
H857        H  0.35804957  0.90895062  0.71578737     0.06800
H858        H  0.45173133  0.90849423  0.80591794     0.06700
O859        O  0.43288957  0.91797030  0.99914806    -0.77900
C860        C  0.38375622  0.50464550  0.50706799     0.83100
O861        O  0.46125774  0.96272895  0.85663567    -0.79000
O862        O  0.48253604  0.54911534  0.94940655    -0.80500
O863        O  0.03042987  0.98065432  0.55845752    -0.80300
O864        O  0.48924149  0.91884251  0.53043967    -0.78900
Zn865      Zn  0.42877519  0.95606186  0.96538090     1.55700
O866        O  0.99813997  0.52135805  0.55370769    -0.80300
Cd867      Cd  0.01190810  0.95611917  0.50456559     1.59700
Cd868      Cd  0.49640619  0.98241109  0.90357931     1.59600
O869        O  0.05792921  0.94510529  0.96683894    -0.80300
O870        O  0.47536193  0.97759748  0.96666688    -1.90800
Cd871      Cd  0.46714892  0.51646390  0.99418367     1.59900
O872        O  0.04932455  0.96448180  0.89802899    -0.80300
O873        O  0.41128791  0.52182810  0.50836536    -0.78900
C874        C  0.42936603  0.95119804  0.86129985     0.83600
C875        C  0.45805166  0.90673915  0.52397892     0.83300
O876        O  0.38690003  0.97874743  0.99367301    -0.77900
C877        C  0.02233812  0.50558028  0.57333232     0.84100
O878        O  0.41394781  0.94817981  0.90016942    -0.78000
C879        C  0.06904067  0.95023249  0.92630224     0.84200
C880        C  0.49467297  0.54914888  0.90842815     0.84500
O881        O  0.00070428  0.52575897  0.88685170    -0.80400
C882        C  0.42986739  0.85416844  0.66786265     0.80800
N883        N  0.42624735  0.87954898  0.69043100    -0.77500
C884        C  0.41857586  0.87996349  0.73584742     0.83200
N885        N  0.41337318  0.85491934  0.75856860    -0.77500
C886        C  0.41623808  0.82952804  0.73625225     0.83300
N887        N  0.42402452  0.82920700  0.69087613    -0.79200
C888        C  0.45151509  0.82699534  0.54804808     0.03700
C889        C  0.44252253  0.82757181  0.59485233    -0.12400
C890        C  0.43817598  0.85376673  0.61821692     0.01200
C891        C  0.44254162  0.87959846  0.59400836    -0.11000
C892        C  0.45085808  0.87939562  0.54730800     0.03700
C893        C  0.45525934  0.85318793  0.52434316    -0.10400
H894        H  0.43968014  0.80754191  0.61336239     0.09300
H895        H  0.43986748  0.90003943  0.61141874     0.06800
H896        H  0.46250359  0.85331692  0.98838753     0.06700
C897        C  0.66044798  0.26573231  0.36236516     0.03700
C898        C  0.67511039  0.28906255  0.38688179    -0.12400
C899        C  0.65518786  0.30096762  0.42339751     0.01200
C900        C  0.62060852  0.28956697  0.43534026    -0.11000
C901        C  0.60570566  0.26630264  0.41123995     0.03700
C902        C  0.62572219  0.25431558  0.37474851    -0.10400
H903        H  0.70129940  0.29851352  0.37663202     0.09300
H904        H  0.60488049  0.29923134  0.46293647     0.06800
H905        H  0.61403672  0.23658910  0.35551647     0.06700
C906        C  0.79371033  0.18878969  0.06989429     0.03700
C907        C  0.77954581  0.16515917  0.04570938    -0.12400
C908        C  0.79802928  0.15484470  0.00711865     0.01200
C909        C  0.83110206  0.16761751  0.49296667    -0.11000
C910        C  0.84680673  0.19023926  0.01798285     0.03700
C911        C  0.82765177  0.20109793  0.05608504    -0.10400
H912        H  0.75422294  0.15471772  0.05676612     0.09300
H913        H  0.84574105  0.15861701  0.46392724     0.06800
H914        H  0.83942010  0.21877867  0.07532852     0.06700
O915        O  0.68304063  0.28775069  0.18362694    -0.77900
C916        C  0.63436605  0.20129459  0.17347777     0.83100
O917        O  0.71202820  0.24357142  0.32626933    -0.79000
O918        O  0.73097042  0.15667609  0.23319342    -0.80500
O919        O  0.78140355  0.22508408  0.12451943    -0.80300
O920        O  0.73891215  0.28662592  0.15110963    -0.78900
Zn921      Zn  0.67896517  0.24961983  0.21739100     1.55700
O922        O  0.74957284  0.18419245  0.12986017    -0.80300
Cd923      Cd  0.76187404  0.24965871  0.17770038     1.59700
Cd924      Cd  0.74656432  0.22338131  0.27892415     1.59600
O925        O  0.80754778  0.26107177  0.21537119    -0.80300
O926        O  0.72547973  0.22816769  0.21583845    -1.90800
Cd927      Cd  0.71734736  0.18937939  0.18800448     1.59900
O928        O  0.79992131  0.24077786  0.28371305    -0.80300
O929        O  0.66195164  0.18423177  0.17150076    -0.78900
C930        C  0.67999102  0.25487186  0.32174137     0.83600
C931        C  0.70786605  0.29882615  0.15810018     0.83300
O932        O  0.63729233  0.22686693  0.18849402    -0.77900
C933        C  0.77375270  0.19995754  0.11022956     0.84100
O934        O  0.66433004  0.25749962  0.28289887    -0.78000
C935        C  0.81915655  0.25550804  0.25551289     0.84200
C936        C  0.74276526  0.15662222  0.27428940     0.84500
O937        O  0.74952035  0.17998336  0.29566231    -0.80400
C938        C  0.68114746  0.35242204  0.01409040     0.80800
N939        N  0.67629915  0.37769569  0.49152228    -0.77500
C940        C  0.66797274  0.37791084  0.44627020     0.83200
N941        N  0.66339649  0.35274135  0.42368996    -0.77500
C942        C  0.66756375  0.32740569  0.44590529     0.83300
N943        N  0.67591535  0.32729123  0.49119636    -0.79200
C944        C  0.70058881  0.37842347  0.13496107     0.03700
C945        C  0.69346308  0.37834576  0.08784891    -0.12400
C946        C  0.68941282  0.35234184  0.06384130     0.01200
C947        C  0.69348216  0.32631981  0.08777165    -0.11000
C948        C  0.70055250  0.32622261  0.13492069     0.03700
C949        C  0.70367351  0.35231614  0.15861792    -0.10400
H950        H  0.69135835  0.39868381  0.07001117     0.09300
H951        H  0.69141978  0.30600859  0.06985368     0.06800
H952        H  0.71007700  0.35230471  0.19482772     0.06700
C953        C  0.65932620  0.43833191  0.36121232     0.03700
C954        C  0.67468091  0.41560771  0.38632740    -0.12400
C955        C  0.65583508  0.40453731  0.42422389     0.01200
C956        C  0.62204618  0.41662098  0.43765388    -0.11000
C957        C  0.60574088  0.43889957  0.41225204     0.03700
C958        C  0.62449104  0.44952455  0.37357593    -0.10400
H959        H  0.70064669  0.40598739  0.37556821     0.09300
H960        H  0.60749376  0.40747122  0.46664527     0.06800
H961        H  0.61238478  0.46669675  0.35349807     0.06700
C962        C  0.79243683  0.01599440  0.06892103     0.03700
C963        C  0.77919870  0.04030194  0.04549035    -0.12400
C964        C  0.79903767  0.05153748  0.00846551     0.01200
C965        C  0.83298120  0.03944365  0.49594924    -0.11000
C966        C  0.84693230  0.01564250  0.01938727     0.03700
C967        C  0.82620509  0.50340577  0.05500926    -0.10400
H968        H  0.75358215  0.05055952  0.05596450     0.09300
H969        H  0.84898165  0.04898319  0.46845571     0.06800
H970        H  0.83729449  0.48502899  0.07318369     0.06700
O971        O  0.63619015  0.47823807  0.18927176    -0.77900
C972        C  0.70775393  0.40584841  0.15815992     0.83100
O973        O  0.71068139  0.46093056  0.32570480    -0.79400
O974        O  0.80763372  0.44526908  0.21612496    -0.80500
O975        O  0.74813684  0.02054724  0.12895958    -0.80300
O976        O  0.66105186  0.02106077  0.17388028    -0.78900
Zn977      Zn  0.67816031  0.45516254  0.21674923     1.55700
O978        O  0.78021309  0.47976454  0.12392352    -0.80300
Cd979      Cd  0.71675537  0.01552126  0.18812852     1.59700
Cd980      Cd  0.74529810  0.48150222  0.27910447     1.59600
O981        O  0.73128327  0.04812244  0.23313510    -0.80300
O982        O  0.72475034  0.47667979  0.21573272    -1.90800
Cd983      Cd  0.76153383  0.45533331  0.17799402     1.59900
O984        O  0.74799054  0.02478631  0.29632800    -0.80300
O985        O  0.73920062  0.41773984  0.15242243    -0.78900
C986        C  0.67886978  0.44931674  0.32078346     0.83600
C987        C  0.63329410  0.00414738  0.17578019     0.83300
O988        O  0.68233718  0.41730369  0.18231816    -0.77900
C989        C  0.77228943  0.00477294  0.10925215     0.84100
O990        O  0.66346246  0.44662685  0.28184068    -0.78000
C991        C  0.74224821  0.04815878  0.27458504     0.84200
C992        C  0.81883837  0.45086098  0.25647810     0.84500
O993        O  0.79886422  0.46486313  0.28474806    -0.80400
C994        C  0.74846414  0.12873515  0.29814599     0.03700
C995        C  0.75846674  0.12843191  0.34455173    -0.12400
C996        C  0.76323510  0.10245850  0.36826945     0.01200
C997        C  0.75823022  0.07641745  0.34481231    -0.11000
C998        C  0.74820774  0.07604341  0.29835941     0.03700
C999        C  0.74335768  0.10237406  0.27527492    -0.10400
H1000       H  0.76220764  0.14858783  0.36243987     0.09300
H1001       H  0.76180153  0.05631593  0.36292258     0.06800
H1002       H  0.73551347  0.10235369  0.23952667     0.06700
C1003       C  0.77293383  0.10263504  0.41757665     0.80800
N1004       N  0.77778574  0.12794560  0.43997389    -0.77500
C1005       C  0.78636815  0.12822120  0.48511971     0.83200
N1006       N  0.79111790  0.10317078  0.00781806    -0.77500
C1007       C  0.78705036  0.07785055  0.48571070     0.83300
N1008       N  0.77841730  0.07757837  0.44052498    -0.79200
C1009       C  0.54265612  0.19060538  0.11238816     0.03700
C1010       C  0.52816355  0.16740189  0.13741111    -0.12400
C1011       C  0.54832011  0.15579498  0.17401847     0.01200
C1012       C  0.58288571  0.16731912  0.18546871    -0.11000
C1013       C  0.59759183  0.19038337  0.16081763     0.03700
C1014       C  0.57740661  0.20213879  0.12431455    -0.10400
H1015       H  0.50200082  0.15778245  0.12743229     0.09300
H1016       H  0.59884360  0.15782148  0.21302222     0.06800
H1017       H  0.58897903  0.21976122  0.10472384     0.06700
C1018       C  0.90924077  0.26844961  0.32065119     0.03700
C1019       C  0.92284531  0.29257284  0.29715194    -0.12400
C1020       C  0.90393317  0.30324617  0.25908109     0.01200
C1021       C  0.87085309  0.29036884  0.24496712    -0.11000
C1022       C  0.85572275  0.26716536  0.26928712     0.03700
C1023       C  0.87537046  0.25600674  0.30679566    -0.10400
H1024       H  0.94824812  0.30294322  0.30808752     0.09300
H1025       H  0.85598396  0.29947925  0.21617773     0.06800
H1026       H  0.86409323  0.23789376  0.32546846     0.06700
O1027       O  0.53858092  0.19863650  0.03287436    -0.77900
C1028       C  0.99493367  0.15704960  0.40828717     0.83100
O1029       O  0.54135850  0.27251400  0.42302167    -0.79000
O1030       O  0.92235887  0.23150609  0.37396570    -0.80500
O1031       O  0.90327093  0.21526555  0.03340306    -0.80300
O1032       O  0.99093828  0.21255774  0.07636678    -0.78900
Zn1033     Zn  0.52418584  0.20656175  0.46720366     1.55700
O1034       O  0.89515818  0.19610390  0.46434512    -0.80300
Cd1035     Cd  0.95641169  0.23259017  0.02897560     1.59700
Cd1036     Cd  0.98574193  0.26698013  0.43868445     1.59600
O1037       O  0.95209366  0.27577015  0.04614588    -0.80300
O1038       O  0.97766388  0.22802071  0.46585472    -1.90800
Cd1039     Cd  0.94138847  0.20671722  0.42725941     1.59900
O1040       O  0.97074652  0.29922171  0.48388723    -0.80300
O1041       O  0.96384184  0.16924572  0.40148403    -0.78900
C1042       C  0.56892099  0.25537424  0.42427046     0.83600
C1043       C  0.52296417  0.20126973  0.07175755     0.83300
O1044       O  0.51999269  0.16832360  0.43330356    -0.77900
C1045       C  0.88366741  0.20134304  0.00463433     0.84100
O1046       O  0.56590961  0.22958430  0.43841927    -0.78000
C1047       C  0.95834005  0.29916014  0.02469435     0.84200
C1048       C  0.92965452  0.25686252  0.36039952     0.84500
O1049       O  0.95366285  0.27256740  0.38046238    -0.80400
C1050       C  0.50149469  0.07705108  0.38491655     0.03700
C1051       C  0.51105031  0.07753347  0.33821621    -0.12400
C1052       C  0.51577934  0.10365827  0.31463034     0.01200
C1053       C  0.51114152  0.12957272  0.33859755    -0.11000
C1054       C  0.50215170  0.12954101  0.38518498     0.03700
C1055       C  0.49737685  0.10335350  0.40827921    -0.10400
H1056       H  0.51415311  0.05745093  0.31994201     0.09300
H1057       H  0.51413504  0.14994575  0.32105772     0.06800
H1058       H  0.98967702  0.10357617  0.44409075     0.06700
C1059       C  0.52469822  0.10384365  0.26496696     0.80800
N1060       N  0.52886817  0.12910456  0.24205709    -0.77500
C1061       C  0.53671171  0.12921187  0.19660157     0.83200
N1062       N  0.54149068  0.10402215  0.17422467    -0.77500
C1063       C  0.53809030  0.07877822  0.19681745     0.83300
N1064       N  0.53014590  0.07872443  0.24219256    -0.79200
C1065       C  0.54243495  0.01666172  0.11378789     0.03700
C1066       C  0.57576902  0.50357526  0.12804447    -0.12400
C1067       C  0.59658999  0.01549817  0.16377602     0.01200
C1068       C  0.58313579  0.03954340  0.18707596    -0.11000
C1069       C  0.54964321  0.05225959  0.17411954     0.03700
C1070       C  0.52972331  0.04125306  0.13693838    -0.10400
H1071       H  0.58654030  0.48504196  0.10998960     0.09300
H1072       H  0.59926165  0.04884633  0.21465765     0.06800
H1073       H  0.50445166  0.05189148  0.12614624     0.06700
C1074       C  0.90992001  0.44039704  0.32069318     0.03700
C1075       C  0.87472784  0.45114934  0.30873948    -0.12400
C1076       C  0.85596720  0.44029305  0.27021541     0.01200
C1077       C  0.87262619  0.41833527  0.24458585    -0.11000
C1078       C  0.90669555  0.40667405  0.25763747     0.03700
C1079       C  0.92559130  0.41791241  0.29533806    -0.10400
H1080       H  0.86230421  0.46805337  0.32907405     0.09300
H1081       H  0.85804951  0.40895075  0.21578721     0.06800
H1082       H  0.95173154  0.40849418  0.30591789     0.06700
O1083       O  0.93288953  0.41797026  0.49914817    -0.77900
C1084       C  0.88375619  0.00464544  0.00706795     0.83100
O1085       O  0.96125785  0.46272881  0.35663573    -0.79000
O1086       O  0.98253606  0.04911530  0.44940646    -0.80500
O1087       O  0.53042976  0.48065433  0.05845745    -0.80300
O1088       O  0.98924141  0.41884253  0.03043973    -0.78900
Zn1089     Zn  0.92877522  0.45606178  0.46538104     1.55700
O1090       O  0.49814001  0.02135807  0.05370764    -0.80300
Cd1091     Cd  0.51190812  0.45611909  0.00456550     1.59700
Cd1092     Cd  0.99640624  0.48241100  0.40357929     1.59600
O1093       O  0.55792922  0.44510520  0.46683908    -0.80300
O1094       O  0.97536195  0.47759743  0.46666687    -1.90800
Cd1095     Cd  0.96714878  0.01646396  0.49418362     1.59900
O1096       O  0.54932453  0.46448186  0.39802925    -0.80300
O1097       O  0.91128784  0.02182809  0.00836526    -0.78900
C1098       C  0.92936608  0.45119800  0.36129988     0.83600
C1099       C  0.95805162  0.40673914  0.02397883     0.83300
O1100       O  0.88690005  0.47874747  0.49367297    -0.77900
C1101       C  0.52233814  0.00558029  0.07333225     0.84100
O1102       O  0.91394781  0.44817984  0.40016947    -0.78000
C1103       C  0.56904067  0.45023249  0.42630239     0.84200
C1104       C  0.99467303  0.04914889  0.40842809     0.84500
O1105       O  0.50070434  0.02575901  0.38685159    -0.80400
C1106       C  0.92986745  0.35416846  0.16786261     0.80800
N1107       N  0.92624732  0.37954900  0.19043095    -0.77500
C1108       C  0.91857576  0.37996351  0.23584734     0.83200
N1109       N  0.91337316  0.35491937  0.25856856    -0.77500
C1110       C  0.91623815  0.32952806  0.23625222     0.83300
N1111       N  0.92402460  0.32920701  0.19087614    -0.79200
C1112       C  0.95151514  0.32699534  0.04804807     0.03700
C1113       C  0.94252257  0.32757188  0.09485219    -0.12400
C1114       C  0.93817597  0.35376675  0.11821692     0.01200
C1115       C  0.94254148  0.37959830  0.09400812    -0.11000
C1116       C  0.95085798  0.37939564  0.04730798     0.03700
C1117       C  0.95525939  0.35318792  0.02434298    -0.10400
H1118       H  0.93968008  0.30754150  0.11336276     0.09300
H1119       H  0.93986711  0.40004023  0.11141934     0.06800
H1120       H  0.96250371  0.35331688  0.48838677     0.06700
C1121       C  0.66044802  0.26573235  0.86236513     0.03700
C1122       C  0.67511023  0.28906258  0.88688176    -0.12400
C1123       C  0.65518787  0.30096762  0.92339752     0.01200
C1124       C  0.62060848  0.28956699  0.93534025    -0.11000
C1125       C  0.60570566  0.26630267  0.91123985     0.03700
C1126       C  0.62572219  0.25431560  0.87474839    -0.10400
H1127       H  0.70129983  0.29851382  0.87663170     0.09300
H1128       H  0.60488054  0.29923128  0.96293630     0.06800
H1129       H  0.61403680  0.23658919  0.85551638     0.06700
C1130       C  0.79371034  0.18878972  0.56989434     0.03700
C1131       C  0.77954556  0.16515913  0.54570953    -0.12400
C1132       C  0.79802929  0.15484472  0.50711869     0.01200
C1133       C  0.83110223  0.16761739  0.99296637    -0.11000
C1134       C  0.84680674  0.19023931  0.51798292     0.03700
C1135       C  0.82765169  0.20109797  0.55608514    -0.10400
H1136       H  0.75422372  0.15471814  0.55676576     0.09300
H1137       H  0.84574056  0.15861721  0.96392822     0.06800
H1138       H  0.83942006  0.21877878  0.57532863     0.06700
O1139       O  0.68304069  0.28775069  0.68362700    -0.77900
C1140       C  0.63436608  0.20129456  0.67347781     0.83100
O1141       O  0.71202828  0.24357145  0.82626938    -0.79000
O1142       O  0.73097050  0.15667612  0.73319342    -0.80500
O1143       O  0.78140342  0.22508415  0.62451930    -0.80300
O1144       O  0.73891216  0.28662588  0.65110961    -0.78900
Zn1145     Zn  0.67896524  0.24961984  0.71739107     1.55700
O1146       O  0.74957293  0.18419243  0.62986024    -0.80300
Cd1147     Cd  0.76187411  0.24965872  0.67770045     1.59700
Cd1148     Cd  0.74656440  0.22338132  0.77892422     1.59600
O1149       O  0.80754788  0.26107183  0.71537119    -0.80300
O1150       O  0.72547980  0.22816770  0.71583851    -1.90800
Cd1151     Cd  0.71734742  0.18937941  0.68800437     1.59900
O1152       O  0.79992138  0.24077785  0.78371300    -0.80300
O1153       O  0.66195168  0.18423173  0.67150076    -0.78900
C1154       C  0.67999108  0.25487189  0.82174137     0.83600
C1155       C  0.70786607  0.29882612  0.65810015     0.83300
O1156       O  0.63729237  0.22686687  0.68849415    -0.77900
C1157       C  0.77375266  0.19995756  0.61022957     0.84100
O1158       O  0.66433013  0.25749964  0.78289889    -0.78000
C1159       C  0.81915662  0.25550804  0.75551292     0.84200
C1160       C  0.74276534  0.15662223  0.77428940     0.84500
O1161       O  0.74952044  0.17998336  0.79566235    -0.80400
C1162       C  0.68114737  0.35242194  0.51409042     0.80800
N1163       N  0.67629923  0.37769573  0.99152218    -0.77500
C1164       C  0.66797269  0.37791085  0.94627014     0.83200
N1165       N  0.66339636  0.35274135  0.92368993    -0.77500
C1166       C  0.66756373  0.32740571  0.94590532     0.83300
N1167       N  0.67591542  0.32729127  0.99119631    -0.79200
C1168       C  0.70058878  0.37842347  0.63496101     0.03700
C1169       C  0.69346312  0.37834560  0.58784897    -0.12400
C1170       C  0.68941279  0.35234181  0.56384130     0.01200
C1171       C  0.69348203  0.32631975  0.58777165    -0.11000
C1172       C  0.70055248  0.32622258  0.63492067     0.03700
C1173       C  0.70367352  0.35231611  0.65861792    -0.10400
H1174       H  0.69135838  0.39868434  0.57001059     0.09300
H1175       H  0.69141958  0.30600862  0.56985376     0.06800
H1176       H  0.71007709  0.35230472  0.69482755     0.06700
C1177       C  0.65932612  0.43833187  0.86121225     0.03700
C1178       C  0.67468108  0.41560763  0.88632724    -0.12400
C1179       C  0.65583505  0.40453732  0.92422390     0.01200
C1180       C  0.62204629  0.41662103  0.93765384    -0.11000
C1181       C  0.60574087  0.43889954  0.91225205     0.03700
C1182       C  0.62449109  0.44952455  0.87357595    -0.10400
H1183       H  0.70064576  0.40598767  0.87556848     0.09300
H1184       H  0.60749357  0.40747109  0.96664579     0.06800
H1185       H  0.61238481  0.46669679  0.85349821     0.06700
C1186       C  0.79243682  0.01599443  0.56892099     0.03700
C1187       C  0.77919862  0.04030200  0.54549036    -0.12400
C1188       C  0.79903766  0.05153749  0.50846553     0.01200
C1189       C  0.83298128  0.03944368  0.99594917    -0.11000
C1190       C  0.84693230  0.01564252  0.51938734     0.03700
C1191       C  0.82620505  0.50340568  0.55500926    -0.10400
H1192       H  0.75358228  0.05055943  0.55596436     0.09300
H1193       H  0.84898151  0.04898315  0.96845605     0.06800
H1194       H  0.83729432  0.48502904  0.57318349     0.06700
O1195       O  0.63619012  0.47823810  0.68927180    -0.77900
C1196       C  0.70775396  0.40584841  0.65815982     0.83100
O1197       O  0.71068136  0.46093052  0.82570491    -0.79400
O1198       O  0.80763378  0.44526914  0.71612485    -0.80500
O1199       O  0.74813681  0.02054724  0.62895948    -0.80300
O1200       O  0.66105193  0.02106071  0.67388035    -0.78900
Zn1201     Zn  0.67816019  0.45516256  0.71674904     1.55700
O1202       O  0.78021309  0.47976452  0.62392335    -0.80300
Cd1203     Cd  0.71675543  0.01552128  0.68812854     1.59700
Cd1204     Cd  0.74529796  0.48150211  0.77910451     1.59600
O1205       O  0.73128336  0.04812243  0.73313509    -0.80300
O1206       O  0.72475025  0.47667976  0.71573258    -1.90800
Cd1207     Cd  0.76153388  0.45533333  0.67799382     1.59900
O1208       O  0.74799037  0.02478627  0.79632804    -0.80300
O1209       O  0.73920067  0.41773984  0.65242224    -0.78900
C1210       C  0.67886979  0.44931673  0.82078344     0.83600
C1211       C  0.63329411  0.00414737  0.67578030     0.83300
O1212       O  0.68233722  0.41730375  0.68231800    -0.77900
C1213       C  0.77228937  0.00477297  0.60925201     0.84100
O1214       O  0.66346253  0.44662687  0.78184059    -0.78000
C1215       C  0.74224818  0.04815877  0.77458505     0.84200
C1216       C  0.81883840  0.45086103  0.75647808     0.84500
O1217       O  0.79886422  0.46486311  0.78474803    -0.80400
C1218       C  0.74846416  0.12873513  0.79814597     0.03700
C1219       C  0.75846683  0.12843196  0.84455179    -0.12400
C1220       C  0.76323514  0.10245848  0.86826942     0.01200
C1221       C  0.75823023  0.07641743  0.84481235    -0.11000
C1222       C  0.74820766  0.07604340  0.79835942     0.03700
C1223       C  0.74335759  0.10237406  0.77527511    -0.10400
H1224       H  0.76220771  0.14858751  0.86243961     0.09300
H1225       H  0.76180154  0.05631600  0.86292250     0.06800
H1226       H  0.73551317  0.10235368  0.73952605     0.06700
C1227       C  0.77293385  0.10263505  0.91757668     0.80800
N1228       N  0.77778583  0.12794559  0.93997383    -0.77500
C1229       C  0.78636824  0.12822120  0.98511969     0.83200
N1230       N  0.79111774  0.10317078  0.50781812    -0.77500
C1231       C  0.78705040  0.07785056  0.98571074     0.83300
N1232       N  0.77841717  0.07757837  0.94052501    -0.79200
C1233       C  0.54265599  0.19060541  0.61238825     0.03700
C1234       C  0.52816355  0.16740190  0.63741116    -0.12400
C1235       C  0.54832012  0.15579496  0.67401847     0.01200
C1236       C  0.58288572  0.16731912  0.68546873    -0.11000
C1237       C  0.59759182  0.19038334  0.66081762     0.03700
C1238       C  0.57740658  0.20213882  0.62431451    -0.10400
H1239       H  0.50200064  0.15778238  0.62743231     0.09300
H1240       H  0.59884356  0.15782151  0.71302223     0.06800
H1241       H  0.58897881  0.21976098  0.60472401     0.06700
C1242       C  0.90924085  0.26844961  0.82065119     0.03700
C1243       C  0.92284535  0.29257285  0.79715202    -0.12400
C1244       C  0.90393318  0.30324618  0.75908115     0.01200
C1245       C  0.87085318  0.29036879  0.74496727    -0.11000
C1246       C  0.85572282  0.26716537  0.76928715     0.03700
C1247       C  0.87537050  0.25600660  0.80679578    -0.10400
H1248       H  0.94824815  0.30294327  0.80808758     0.09300
H1249       H  0.85598390  0.29947931  0.71617750     0.06800
H1250       H  0.86409363  0.23789413  0.82546797     0.06700
O1251       O  0.53858096  0.19863654  0.53287439    -0.77900
C1252       C  0.99493362  0.15704963  0.90828723     0.83100
O1253       O  0.54135850  0.27251400  0.92302178    -0.79000
O1254       O  0.92235893  0.23150609  0.87396569    -0.80500
O1255       O  0.90327097  0.21526561  0.53340315    -0.80300
O1256       O  0.99093828  0.21255779  0.57636670    -0.78900
Zn1257     Zn  0.52418588  0.20656178  0.96720373     1.55700
O1258       O  0.89515805  0.19610393  0.96434496    -0.80300
Cd1259     Cd  0.95641176  0.23259017  0.52897542     1.59700
Cd1260     Cd  0.98574197  0.26698015  0.93868452     1.59600
O1261       O  0.95209367  0.27577009  0.54614593    -0.80300
O1262       O  0.97766372  0.22802074  0.96585485    -1.90800
Cd1263     Cd  0.94138833  0.20671725  0.92725948     1.59900
O1264       O  0.97074661  0.29922175  0.98388717    -0.80300
O1265       O  0.96384182  0.16924578  0.90148415    -0.78900
C1266       C  0.56892101  0.25537426  0.92427047     0.83600
C1267       C  0.52296413  0.20126975  0.57175752     0.83300
O1268       O  0.51999265  0.16832362  0.93330369    -0.77900
C1269       C  0.88366745  0.20134307  0.50463447     0.84100
O1270       O  0.56590970  0.22958433  0.93841934    -0.78000
C1271       C  0.95833999  0.29916011  0.52469438     0.84200
C1272       C  0.92965455  0.25686252  0.86039955     0.84500
O1273       O  0.95366280  0.27256745  0.88046250    -0.80400
C1274       C  0.50149466  0.07705110  0.88491663     0.03700
C1275       C  0.51105023  0.07753349  0.83821623    -0.12400
C1276       C  0.51577934  0.10365825  0.81463036     0.01200
C1277       C  0.51114161  0.12957273  0.83859757    -0.11000
C1278       C  0.50215177  0.12954103  0.88518505     0.03700
C1279       C  0.49737695  0.10335353  0.90827904    -0.10400
H1280       H  0.51415292  0.05745083  0.81994192     0.09300
H1281       H  0.51413514  0.14994576  0.82105777     0.06800
H1282       H  0.98967649  0.10357620  0.94409184     0.06700
C1283       C  0.52469818  0.10384365  0.76496696     0.80800
N1284       N  0.52886823  0.12910453  0.74205713    -0.77500
C1285       C  0.53671173  0.12921188  0.69660161     0.83200
N1286       N  0.54149059  0.10402215  0.67422465    -0.77500
C1287       C  0.53809030  0.07877824  0.69681743     0.83300
N1288       N  0.53014589  0.07872441  0.74219254    -0.79200
C1289       C  0.54243502  0.01666164  0.61378799     0.03700
C1290       C  0.57576907  0.50357534  0.62804459    -0.12400
C1291       C  0.59659006  0.01549816  0.66377609     0.01200
C1292       C  0.58313587  0.03954344  0.68707609    -0.11000
C1293       C  0.54964330  0.05225960  0.67411951     0.03700
C1294       C  0.52972336  0.04125305  0.63693842    -0.10400
H1295       H  0.58654053  0.48504178  0.60998944     0.09300
H1296       H  0.59926151  0.04884626  0.71465751     0.06800
H1297       H  0.50445185  0.05189139  0.62614629     0.06700
C1298       C  0.90992003  0.44039703  0.82069314     0.03700
C1299       C  0.87472779  0.45114942  0.80873958    -0.12400
C1300       C  0.85596723  0.44029305  0.77021532     0.01200
C1301       C  0.87262621  0.41833526  0.74458598    -0.11000
C1302       C  0.90669553  0.40667403  0.75763749     0.03700
C1303       C  0.92559134  0.41791237  0.79533816    -0.10400
H1304       H  0.86230448  0.46805295  0.82907362     0.09300
H1305       H  0.85804929  0.40895056  0.71578704     0.06800
H1306       H  0.95173118  0.40849422  0.80591785     0.06700
O1307       O  0.93288961  0.41797025  0.99914796    -0.77900
C1308       C  0.88375617  0.00464546  0.50706802     0.83100
O1309       O  0.96125790  0.46272885  0.85663565    -0.79000
O1310       O  0.98253614  0.04911530  0.94940661    -0.80500
O1311       O  0.53042979  0.48065434  0.55845753    -0.80300
O1312       O  0.98924140  0.41884255  0.53043978    -0.78900
Zn1313     Zn  0.92877530  0.45606180  0.96538090     1.55700
O1314       O  0.49814012  0.02135805  0.55370766    -0.80300
Cd1315     Cd  0.51190802  0.45611912  0.50456558     1.59700
Cd1316     Cd  0.99640628  0.48241100  0.90357932     1.59600
O1317       O  0.55792916  0.44510516  0.96683891    -0.80300
O1318       O  0.97536199  0.47759746  0.96666689    -1.90800
Cd1319     Cd  0.96714883  0.01646385  0.99418368     1.59900
O1320       O  0.54932452  0.46448174  0.89802900    -0.80300
O1321       O  0.91128784  0.02182810  0.50836535    -0.78900
C1322       C  0.92936613  0.45119803  0.86129982     0.83600
C1323       C  0.95805160  0.40673915  0.52397893     0.83300
O1324       O  0.88690009  0.47874745  0.99367299    -0.77900
C1325       C  0.52233818  0.00558026  0.57333233     0.84100
O1326       O  0.91394790  0.44817987  0.90016940    -0.78000
C1327       C  0.56904063  0.45023240  0.92630220     0.84200
C1328       C  0.99467299  0.04914890  0.90842815     0.84500
O1329       O  0.50070436  0.02575903  0.88685168    -0.80400
C1330       C  0.92986730  0.35416844  0.66786264     0.80800
N1331       N  0.92624737  0.37954901  0.69043102    -0.77500
C1332       C  0.91857577  0.37996349  0.73584742     0.83200
N1333       N  0.91337304  0.35491938  0.75856857    -0.77500
C1334       C  0.91623801  0.32952806  0.73625228     0.83300
N1335       N  0.92402438  0.32920704  0.69087611    -0.79200
C1336       C  0.95151512  0.32699532  0.54804811     0.03700
C1337       C  0.94252244  0.32757188  0.59485224    -0.12400
C1338       C  0.93817585  0.35376674  0.61821691     0.01200
C1339       C  0.94254148  0.37959844  0.59400830    -0.11000
C1340       C  0.95085803  0.37939561  0.54730801     0.03700
C1341       C  0.95525942  0.35318791  0.52434314    -0.10400
H1342       H  0.93967990  0.30754158  0.61336270     0.09300
H1343       H  0.93986729  0.40003954  0.61141879     0.06800
H1344       H  0.96250358  0.35331690  0.98838716     0.06700
C1345       C  0.66044799  0.76573232  0.36236519     0.03700
C1346       C  0.67511045  0.78906262  0.38688176    -0.12400
C1347       C  0.65518782  0.80096766  0.42339746     0.01200
C1348       C  0.62060848  0.78956705  0.43534030    -0.11000
C1349       C  0.60570566  0.76630269  0.41123993     0.03700
C1350       C  0.62572220  0.75431565  0.37474851    -0.10400
H1351       H  0.70129908  0.79851346  0.37663215     0.09300
H1352       H  0.60488067  0.79923130  0.46293621     0.06800
H1353       H  0.61403667  0.73658914  0.35551640     0.06700
C1354       C  0.79371033  0.68878978  0.06989427     0.03700
C1355       C  0.77954580  0.66515924  0.04570937    -0.12400
C1356       C  0.79802928  0.65484472  0.00711866     0.01200
C1357       C  0.83110209  0.66761743  0.49296665    -0.11000
C1358       C  0.84680670  0.69023933  0.01798282     0.03700
C1359       C  0.82765176  0.70109802  0.05608503    -0.10400
H1360       H  0.75422294  0.65471781  0.05676613     0.09300
H1361       H  0.84574090  0.65861701  0.46392760     0.06800
H1362       H  0.83942011  0.71877875  0.07532849     0.06700
O1363       O  0.68304064  0.78775063  0.18362693    -0.77900
C1364       C  0.63436605  0.70129461  0.17347775     0.83100
O1365       O  0.71202815  0.74357136  0.32626933    -0.79000
O1366       O  0.73097042  0.65667614  0.23319343    -0.80500
O1367       O  0.78140355  0.72508418  0.12451942    -0.80300
O1368       O  0.73891214  0.78662592  0.15110962    -0.78900
Zn1369     Zn  0.67896517  0.74961975  0.21739101     1.55700
O1370       O  0.74957284  0.68419255  0.12986017    -0.80300
Cd1371     Cd  0.76187404  0.74965876  0.17770039     1.59700
Cd1372     Cd  0.74656433  0.72338137  0.27892415     1.59600
O1373       O  0.80754782  0.76107172  0.21537117    -0.80300
O1374       O  0.72547975  0.72816768  0.21583846    -1.90800
Cd1375     Cd  0.71734737  0.68937945  0.18800448     1.59900
O1376       O  0.79992128  0.74077794  0.28371311    -0.80300
O1377       O  0.66195167  0.68423180  0.17150073    -0.78900
C1378       C  0.67999103  0.75487188  0.32174138     0.83600
C1379       C  0.70786606  0.79882613  0.15810021     0.83300
O1380       O  0.63729229  0.72686691  0.18849406    -0.77900
C1381       C  0.77375270  0.69995764  0.11022955     0.84100
O1382       O  0.66433007  0.75749970  0.28289887    -0.78000
C1383       C  0.81915656  0.75550805  0.25551287     0.84200
C1384       C  0.74276526  0.65662224  0.27428939     0.84500
O1385       O  0.74952037  0.67998339  0.29566232    -0.80400
C1386       C  0.68114747  0.85242194  0.01409039     0.80800
N1387       N  0.67629917  0.87769566  0.49152230    -0.77500
C1388       C  0.66797267  0.87791085  0.44627024     0.83200
N1389       N  0.66339632  0.85274137  0.42369000    -0.77500
C1390       C  0.66756370  0.82740572  0.44590528     0.83300
N1391       N  0.67591537  0.82729119  0.49119630    -0.79200
C1392       C  0.70058882  0.87842350  0.13496103     0.03700
C1393       C  0.69346309  0.87834561  0.08784896    -0.12400
C1394       C  0.68941283  0.85234180  0.06384131     0.01200
C1395       C  0.69348216  0.82631965  0.08777162    -0.11000
C1396       C  0.70055251  0.82622262  0.13492076     0.03700
C1397       C  0.70367352  0.85231615  0.15861793    -0.10400
H1398       H  0.69135830  0.89868425  0.07001063     0.09300
H1399       H  0.69141984  0.80600902  0.06985422     0.06800
H1400       H  0.71007700  0.85230480  0.19482772     0.06700
C1401       C  0.65932620  0.93833183  0.36121230     0.03700
C1402       C  0.67468091  0.91560764  0.38632739    -0.12400
C1403       C  0.65583508  0.90453732  0.42422398     0.01200
C1404       C  0.62204628  0.91662107  0.43765386    -0.11000
C1405       C  0.60574089  0.93889958  0.41225206     0.03700
C1406       C  0.62449106  0.94952447  0.37357589    -0.10400
H1407       H  0.70064662  0.90598728  0.37556821     0.09300
H1408       H  0.60749354  0.90747116  0.46664592     0.06800
H1409       H  0.61238473  0.96669672  0.35349788     0.06700
C1410       C  0.79243684  0.51599444  0.06892106     0.03700
C1411       C  0.77919872  0.54030199  0.04549039    -0.12400
C1412       C  0.79903767  0.55153750  0.00846553     0.01200
C1413       C  0.83298126  0.53944372  0.49594922    -0.11000
C1414       C  0.84693232  0.51564256  0.01938729     0.03700
C1415       C  0.82620512  0.00340563  0.05500932    -0.10400
H1416       H  0.75358211  0.55055959  0.05596454     0.09300
H1417       H  0.84898145  0.54898315  0.46845603     0.06800
H1418       H  0.83729431  0.98502925  0.07318343     0.06700
O1419       O  0.63619016  0.97823809  0.18927172    -0.77900
C1420       C  0.70775393  0.90584844  0.15815989     0.83100
O1421       O  0.71068133  0.96093059  0.32570481    -0.79400
O1422       O  0.80763371  0.94526900  0.21612495    -0.80500
O1423       O  0.74813686  0.52054724  0.12895962    -0.80300
O1424       O  0.66105188  0.52106072  0.17388024    -0.78900
Zn1425     Zn  0.67816031  0.95516248  0.21674923     1.55700
O1426       O  0.78021313  0.97976456  0.12392357    -0.80300
Cd1427     Cd  0.71675538  0.51552119  0.18812852     1.59700
Cd1428     Cd  0.74529811  0.98150217  0.27910448     1.59600
O1429       O  0.73128326  0.54812241  0.23313510    -0.80300
O1430       O  0.72475032  0.97667984  0.21573272    -1.90800
Cd1431     Cd  0.76153384  0.95533338  0.17799403     1.59900
O1432       O  0.74799052  0.52478630  0.29632799    -0.80300
O1433       O  0.73920062  0.91773991  0.15242242    -0.78900
C1434       C  0.67886978  0.94931667  0.32078346     0.83600
C1435       C  0.63329410  0.50414732  0.17578017     0.83300
O1436       O  0.68233718  0.91730371  0.18231813    -0.77900
C1437       C  0.77228943  0.50477292  0.10925214     0.84100
O1438       O  0.66346250  0.94662672  0.28184067    -0.78000
C1439       C  0.74224821  0.54815877  0.27458503     0.84200
C1440       C  0.81883837  0.95086089  0.25647808     0.84500
O1441       O  0.79886421  0.96486302  0.28474807    -0.80400
C1442       C  0.74846414  0.62873515  0.29814598     0.03700
C1443       C  0.75846674  0.62843188  0.34455171    -0.12400
C1444       C  0.76323510  0.60245849  0.36826945     0.01200
C1445       C  0.75823022  0.57641743  0.34481231    -0.11000
C1446       C  0.74820774  0.57604340  0.29835941     0.03700
C1447       C  0.74335768  0.60237405  0.27527491    -0.10400
H1448       H  0.76220765  0.64858790  0.36243993     0.09300
H1449       H  0.76180154  0.55631589  0.36292261     0.06800
H1450       H  0.73551347  0.60235368  0.23952665     0.06700
C1451       C  0.77293383  0.60263498  0.41757665     0.80800
N1452       N  0.77778574  0.62794558  0.43997391    -0.77500
C1453       C  0.78636814  0.62822115  0.48511972     0.83200
N1454       N  0.79111790  0.60317076  0.00781806    -0.77500
C1455       C  0.78705034  0.57785051  0.48571070     0.83300
N1456       N  0.77841730  0.57757835  0.44052496    -0.79200
C1457       C  0.54265610  0.69060537  0.11238817     0.03700
C1458       C  0.52816363  0.66740195  0.13741111    -0.12400
C1459       C  0.54832010  0.65579494  0.17401845     0.01200
C1460       C  0.58288567  0.66731917  0.18546862    -0.11000
C1461       C  0.59759183  0.69038333  0.16081764     0.03700
C1462       C  0.57740667  0.70213890  0.12431444    -0.10400
H1463       H  0.50200041  0.65778235  0.12743216     0.09300
H1464       H  0.59884382  0.65782136  0.21302266     0.06800
H1465       H  0.58897870  0.71976076  0.10472442     0.06700
C1466       C  0.90924077  0.76844963  0.32065120     0.03700
C1467       C  0.92284526  0.79257280  0.29715187    -0.12400
C1468       C  0.90393318  0.80324614  0.25908110     0.01200
C1469       C  0.87085304  0.79036885  0.24496707    -0.11000
C1470       C  0.85572278  0.76716533  0.26928711     0.03700
C1471       C  0.87537048  0.75600669  0.30679562    -0.10400
H1472       H  0.94824843  0.80294331  0.30808761     0.09300
H1473       H  0.85598410  0.79947917  0.21617816     0.06800
H1474       H  0.86409330  0.73789373  0.32546839     0.06700
O1475       O  0.53858092  0.69863656  0.03287437    -0.77900
C1476       C  0.99493367  0.65704964  0.40828716     0.83100
O1477       O  0.54135850  0.77251406  0.42302167    -0.79000
O1478       O  0.92235888  0.73150618  0.37396574    -0.80500
O1479       O  0.90327096  0.71526549  0.03340306    -0.80300
O1480       O  0.99093830  0.71255779  0.07636682    -0.78900
Zn1481     Zn  0.52418585  0.70656170  0.46720366     1.55700
O1482       O  0.89515820  0.69610381  0.46434511    -0.80300
Cd1483     Cd  0.95641169  0.73259008  0.02897559     1.59700
Cd1484     Cd  0.98574193  0.76698019  0.43868446     1.59600
O1485       O  0.95209367  0.77577011  0.04614581    -0.80300
O1486       O  0.97766391  0.72802068  0.46585472    -1.90800
Cd1487     Cd  0.94138846  0.70671729  0.42725941     1.59900
O1488       O  0.97074653  0.79922179  0.48388722    -0.80300
O1489       O  0.96384186  0.66924579  0.40148401    -0.78900
C1490       C  0.56892099  0.75537429  0.42427047     0.83600
C1491       C  0.52296420  0.70126979  0.07175755     0.83300
O1492       O  0.51999270  0.66832362  0.43330354    -0.77900
C1493       C  0.88366741  0.70134303  0.00463432     0.84100
O1494       O  0.56590960  0.72958435  0.43841927    -0.78000
C1495       C  0.95834005  0.79916013  0.02469434     0.84200
C1496       C  0.92965451  0.75686259  0.36039954     0.84500
O1497       O  0.95366285  0.77256749  0.38046238    -0.80400
C1498       C  0.50149470  0.57705107  0.38491655     0.03700
C1499       C  0.51105033  0.57753336  0.33821611    -0.12400
C1500       C  0.51577934  0.60365825  0.31463036     0.01200
C1501       C  0.51114152  0.62957273  0.33859753    -0.11000
C1502       C  0.50215169  0.62954100  0.38518499     0.03700
C1503       C  0.49737686  0.60335348  0.40827920    -0.10400
H1504       H  0.51415304  0.55745134  0.31994240     0.09300
H1505       H  0.51413502  0.64994559  0.32105786     0.06800
H1506       H  0.98967703  0.60357615  0.44409073     0.06700
C1507       C  0.52469822  0.60384366  0.26496697     0.80800
N1508       N  0.52886819  0.62910454  0.24205711    -0.77500
C1509       C  0.53671166  0.62921188  0.19660156     0.83200
N1510       N  0.54149050  0.60402211  0.17422465    -0.77500
C1511       C  0.53809026  0.57877821  0.19681745     0.83300
N1512       N  0.53014592  0.57872441  0.24219259    -0.79200
C1513       C  0.54243493  0.51666168  0.11378792     0.03700
C1514       C  0.57576900  0.00357542  0.12804455    -0.12400
C1515       C  0.59658998  0.51549812  0.16377603     0.01200
C1516       C  0.58313578  0.53954332  0.18707596    -0.11000
C1517       C  0.54964324  0.55225956  0.17411953     0.03700
C1518       C  0.52972329  0.54125307  0.13693831    -0.10400
H1519       H  0.58654056  0.98504160  0.10998920     0.09300
H1520       H  0.59926163  0.54884624  0.21465772     0.06800
H1521       H  0.50445203  0.55189136  0.12614634     0.06700
C1522       C  0.90992000  0.94039699  0.32069320     0.03700
C1523       C  0.87472785  0.95114926  0.30873948    -0.12400
C1524       C  0.85596722  0.94029301  0.27021540     0.01200
C1525       C  0.87262619  0.91833522  0.24458583    -0.11000
C1526       C  0.90669557  0.90667403  0.25763744     0.03700
C1527       C  0.92559138  0.91791234  0.29533809    -0.10400
H1528       H  0.86230414  0.96805335  0.32907417     0.09300
H1529       H  0.85804954  0.90895071  0.21578738     0.06800
H1530       H  0.95173125  0.90849424  0.30591775     0.06700
O1531       O  0.93288954  0.91797032  0.49914820    -0.77900
C1532       C  0.88375619  0.50464549  0.00706794     0.83100
O1533       O  0.96125779  0.96272891  0.35663573    -0.79000
O1534       O  0.98253606  0.54911531  0.44940647    -0.80500
O1535       O  0.53042981  0.98065437  0.05845745    -0.80300
O1536       O  0.98924145  0.91884250  0.03043968    -0.78900
Zn1537     Zn  0.92877524  0.95606184  0.46538104     1.55700
O1538       O  0.49814005  0.52135808  0.05370763    -0.80300
Cd1539     Cd  0.51190812  0.95611915  0.00456551     1.59700
Cd1540     Cd  0.99640625  0.98241107  0.40357928     1.59600
O1541       O  0.55792924  0.94510526  0.46683912    -0.80300
O1542       O  0.97536194  0.97759753  0.46666687    -1.90800
Cd1543     Cd  0.96714879  0.51646389  0.49418361     1.59900
O1544       O  0.54932448  0.96448179  0.39802919    -0.80300
O1545       O  0.91128787  0.52182810  0.00836529    -0.78900
C1546       C  0.92936609  0.95119800  0.36129988     0.83600
C1547       C  0.95805163  0.90673915  0.02397883     0.83300
O1548       O  0.88690008  0.97874745  0.49367300    -0.77900
C1549       C  0.52233813  0.50558025  0.07333225     0.84100
O1550       O  0.91394784  0.94817979  0.40016948    -0.78000
C1551       C  0.56904066  0.95023248  0.42630238     0.84200
C1552       C  0.99467302  0.54914887  0.40842810     0.84500
O1553       O  0.50070431  0.52575897  0.38685164    -0.80400
C1554       C  0.92986739  0.85416844  0.16786260     0.80800
N1555       N  0.92624735  0.87954896  0.19043096    -0.77500
C1556       C  0.91857577  0.87996350  0.23584732     0.83200
N1557       N  0.91337318  0.85491934  0.25856858    -0.77500
C1558       C  0.91623810  0.82952806  0.23625221     0.83300
N1559       N  0.92402443  0.82920699  0.19087611    -0.79200
C1560       C  0.95151514  0.82699533  0.04804807     0.03700
C1561       C  0.94252256  0.82757178  0.09485228    -0.12400
C1562       C  0.93817597  0.85376670  0.11821691     0.01200
C1563       C  0.94254146  0.87959838  0.09400823    -0.11000
C1564       C  0.95085794  0.87939562  0.04730797     0.03700
C1565       C  0.95525938  0.85318792  0.02434301    -0.10400
H1566       H  0.93968015  0.80754185  0.11336236     0.09300
H1567       H  0.93986718  0.90003970  0.11141891     0.06800
H1568       H  0.96250370  0.85331691  0.48838685     0.06700
C1569       C  0.66044804  0.76573235  0.86236515     0.03700
C1570       C  0.67511028  0.78906264  0.88688172    -0.12400
C1571       C  0.65518783  0.80096765  0.92339747     0.01200
C1572       C  0.62060851  0.78956696  0.93534027    -0.11000
C1573       C  0.60570566  0.76630267  0.91123985     0.03700
C1574       C  0.62572219  0.75431565  0.87474836    -0.10400
H1575       H  0.70129952  0.79851377  0.87663182     0.09300
H1576       H  0.60488056  0.79923124  0.96293650     0.06800
H1577       H  0.61403676  0.73658923  0.85551627     0.06700
C1578       C  0.79371035  0.68878978  0.56989432     0.03700
C1579       C  0.77954552  0.66515917  0.54570951    -0.12400
C1580       C  0.79802927  0.65484472  0.50711872     0.01200
C1581       C  0.83110219  0.66761745  0.99296636    -0.11000
C1582       C  0.84680676  0.69023925  0.51798294     0.03700
C1583       C  0.82765169  0.70109800  0.55608508    -0.10400
H1584       H  0.75422376  0.65471826  0.55676573     0.09300
H1585       H  0.84574054  0.65861727  0.96392820     0.06800
H1586       H  0.83942007  0.71877883  0.57532851     0.06700
O1587       O  0.68304070  0.78775064  0.68362696    -0.77900
C1588       C  0.63436607  0.70129465  0.67347780     0.83100
O1589       O  0.71202824  0.74357136  0.82626936    -0.79000
O1590       O  0.73097050  0.65667618  0.73319343    -0.80500
O1591       O  0.78140342  0.72508422  0.62451930    -0.80300
O1592       O  0.73891220  0.78662597  0.65110963    -0.78900
Zn1593     Zn  0.67896526  0.74961978  0.71739108     1.55700
O1594       O  0.74957294  0.68419250  0.62986024    -0.80300
Cd1595     Cd  0.76187410  0.74965879  0.67770045     1.59700
Cd1596     Cd  0.74656440  0.72338125  0.77892422     1.59600
O1597       O  0.80754791  0.76107177  0.71537117    -0.80300
O1598       O  0.72547983  0.72816767  0.71583852    -1.90800
Cd1599     Cd  0.71734742  0.68937947  0.68800436     1.59900
O1600       O  0.79992133  0.74077790  0.78371306    -0.80300
O1601       O  0.66195168  0.68423182  0.67150075    -0.78900
C1602       C  0.67999110  0.75487191  0.82174137     0.83600
C1603       C  0.70786608  0.79882615  0.65810018     0.83300
O1604       O  0.63729235  0.72686694  0.68849415    -0.77900
C1605       C  0.77375267  0.69995760  0.61022958     0.84100
O1606       O  0.66433016  0.75749972  0.78289889    -0.78000
C1607       C  0.81915662  0.75550804  0.75551292     0.84200
C1608       C  0.74276534  0.65662224  0.77428940     0.84500
O1609       O  0.74952046  0.67998337  0.79566239    -0.80400
C1610       C  0.68114737  0.85242193  0.51409041     0.80800
N1611       N  0.67629923  0.87769568  0.99152222    -0.77500
C1612       C  0.66797268  0.87791084  0.94627019     0.83200
N1613       N  0.66339635  0.85274137  0.92368993    -0.77500
C1614       C  0.66756371  0.82740570  0.94590529     0.83300
N1615       N  0.67591542  0.82729122  0.99119627    -0.79200
C1616       C  0.70058879  0.87842350  0.63496101     0.03700
C1617       C  0.69346311  0.87834571  0.58784883    -0.12400
C1618       C  0.68941280  0.85234178  0.56384132     0.01200
C1619       C  0.69348202  0.82631966  0.58777160    -0.11000
C1620       C  0.70055245  0.82622262  0.63492073     0.03700
C1621       C  0.70367352  0.85231616  0.65861792    -0.10400
H1622       H  0.69135843  0.89868380  0.57001103     0.09300
H1623       H  0.69141964  0.80600904  0.56985424     0.06800
H1624       H  0.71007708  0.85230480  0.69482750     0.06700
C1625       C  0.65932614  0.93833186  0.86121226     0.03700
C1626       C  0.67468108  0.91560758  0.88632723    -0.12400
C1627       C  0.65583505  0.90453735  0.92422397     0.01200
C1628       C  0.62204633  0.91662110  0.93765383    -0.11000
C1629       C  0.60574088  0.93889959  0.91225206     0.03700
C1630       C  0.62449111  0.94952451  0.87357592    -0.10400
H1631       H  0.70064562  0.90598762  0.87556845     0.09300
H1632       H  0.60749342  0.90747110  0.96664608     0.06800
H1633       H  0.61238471  0.96669683  0.85349795     0.06700
C1634       C  0.79243681  0.51599438  0.56892096     0.03700
C1635       C  0.77919858  0.54030202  0.54549042    -0.12400
C1636       C  0.79903767  0.55153749  0.50846556     0.01200
C1637       C  0.83298131  0.53944375  0.99594919    -0.11000
C1638       C  0.84693233  0.51564256  0.51938737     0.03700
C1639       C  0.82620505  0.00340572  0.55500931    -0.10400
H1640       H  0.75358263  0.55055931  0.55596427     0.09300
H1641       H  0.84898152  0.54898322  0.96845606     0.06800
H1642       H  0.83729440  0.98502902  0.57318370     0.06700
O1643       O  0.63619009  0.97823806  0.68927179    -0.77900
C1644       C  0.70775397  0.90584846  0.65815979     0.83100
O1645       O  0.71068132  0.96093059  0.82570489    -0.79400
O1646       O  0.80763376  0.94526906  0.71612485    -0.80500
O1647       O  0.74813685  0.52054722  0.62895950    -0.80300
O1648       O  0.66105192  0.52106074  0.67388033    -0.78900
Zn1649     Zn  0.67816019  0.95516250  0.71674905     1.55700
O1650       O  0.78021314  0.97976457  0.62392337    -0.80300
Cd1651     Cd  0.71675544  0.51552121  0.68812854     1.59700
Cd1652     Cd  0.74529797  0.98150216  0.77910451     1.59600
O1653       O  0.73128335  0.54812244  0.73313506    -0.80300
O1654       O  0.72475023  0.97667983  0.71573258    -1.90800
Cd1655     Cd  0.76153388  0.95533340  0.67799382     1.59900
O1656       O  0.74799035  0.52478626  0.79632801    -0.80300
O1657       O  0.73920067  0.91773991  0.65242223    -0.78900
C1658       C  0.67886981  0.94931669  0.82078344     0.83600
C1659       C  0.63329411  0.50414736  0.67578027     0.83300
O1660       O  0.68233722  0.91730377  0.68231798    -0.77900
C1661       C  0.77228936  0.50477292  0.60925199     0.84100
O1662       O  0.66346257  0.94662674  0.78184059    -0.78000
C1663       C  0.74224818  0.54815876  0.77458504     0.84200
C1664       C  0.81883839  0.95086095  0.75647806     0.84500
O1665       O  0.79886420  0.96486303  0.78474802    -0.80400
C1666       C  0.74846416  0.62873515  0.79814599     0.03700
C1667       C  0.75846683  0.62843190  0.84455179    -0.12400
C1668       C  0.76323514  0.60245845  0.86826942     0.01200
C1669       C  0.75823023  0.57641737  0.84481235    -0.11000
C1670       C  0.74820766  0.57604340  0.79835940     0.03700
C1671       C  0.74335759  0.60237407  0.77527510    -0.10400
H1672       H  0.76220775  0.64858764  0.86243979     0.09300
H1673       H  0.76180151  0.55631606  0.86292237     0.06800
H1674       H  0.73551318  0.60235372  0.73952609     0.06700
C1675       C  0.77293385  0.60263495  0.91757668     0.80800
N1676       N  0.77778583  0.62794553  0.93997384    -0.77500
C1677       C  0.78636826  0.62822115  0.98511969     0.83200
N1678       N  0.79111774  0.60317076  0.50781812    -0.77500
C1679       C  0.78705038  0.57785051  0.98571074     0.83300
N1680       N  0.77841716  0.57757831  0.94052500    -0.79200
C1681       C  0.54265598  0.69060541  0.61238824     0.03700
C1682       C  0.52816363  0.66740196  0.63741116    -0.12400
C1683       C  0.54832015  0.65579495  0.67401843     0.01200
C1684       C  0.58288571  0.66731921  0.68546865    -0.11000
C1685       C  0.59759180  0.69038339  0.66081767     0.03700
C1686       C  0.57740663  0.70213896  0.62431441    -0.10400
H1687       H  0.50200025  0.65778228  0.62743218     0.09300
H1688       H  0.59884378  0.65782146  0.71302256     0.06800
H1689       H  0.58897851  0.71976061  0.60472447     0.06700
C1690       C  0.90924084  0.76844964  0.82065123     0.03700
C1691       C  0.92284530  0.79257281  0.79715194    -0.12400
C1692       C  0.90393321  0.80324612  0.75908109     0.01200
C1693       C  0.87085323  0.79036871  0.74496727    -0.11000
C1694       C  0.85572283  0.76716532  0.76928715     0.03700
C1695       C  0.87537053  0.75600669  0.80679574    -0.10400
H1696       H  0.94824851  0.80294338  0.80808768     0.09300
H1697       H  0.85598375  0.79947932  0.71617721     0.06800
H1698       H  0.86409336  0.73789376  0.82546848     0.06700
O1699       O  0.53858096  0.69863660  0.53287440    -0.77900
C1700       C  0.99493361  0.65704966  0.90828723     0.83100
O1701       O  0.54135852  0.77251401  0.92302181    -0.79000
O1702       O  0.92235893  0.73150618  0.87396572    -0.80500
O1703       O  0.90327099  0.71526550  0.53340315    -0.80300
O1704       O  0.99093830  0.71255784  0.57636674    -0.78900
Zn1705     Zn  0.52418588  0.70656172  0.96720373     1.55700
O1706       O  0.89515807  0.69610389  0.96434495    -0.80300
Cd1707     Cd  0.95641175  0.73259010  0.52897541     1.59700
Cd1708     Cd  0.98574197  0.76698021  0.93868453     1.59600
O1709       O  0.95209368  0.77577010  0.54614588    -0.80300
O1710       O  0.97766375  0.72802071  0.96585485    -1.90800
Cd1711     Cd  0.94138833  0.70671732  0.92725947     1.59900
O1712       O  0.97074662  0.79922180  0.98388718    -0.80300
O1713       O  0.96384183  0.66924584  0.90148413    -0.78900
C1714       C  0.56892102  0.75537424  0.92427047     0.83600
C1715       C  0.52296415  0.70126981  0.57175752     0.83300
O1716       O  0.51999265  0.66832364  0.93330368    -0.77900
C1717       C  0.88366747  0.70134297  0.50463447     0.84100
O1718       O  0.56590968  0.72958430  0.93841929    -0.78000
C1719       C  0.95834000  0.79916014  0.52469437     0.84200
C1720       C  0.92965455  0.75686261  0.86039957     0.84500
O1721       O  0.95366280  0.77256754  0.88046250    -0.80400
C1722       C  0.50149468  0.57705106  0.88491659     0.03700
C1723       C  0.51105025  0.57753339  0.83821612    -0.12400
C1724       C  0.51577934  0.60365825  0.81463037     0.01200
C1725       C  0.51114161  0.62957274  0.83859757    -0.11000
C1726       C  0.50215175  0.62954101  0.88518507     0.03700
C1727       C  0.49737695  0.60335349  0.90827902    -0.10400
H1728       H  0.51415287  0.55745117  0.81994223     0.09300
H1729       H  0.51413512  0.64994559  0.82105793     0.06800
H1730       H  0.98967651  0.60357613  0.94409178     0.06700
C1731       C  0.52469818  0.60384368  0.76496697     0.80800
N1732       N  0.52886823  0.62910456  0.74205712    -0.77500
C1733       C  0.53671175  0.62921190  0.69660159     0.83200
N1734       N  0.54149059  0.60402214  0.67422465    -0.77500
C1735       C  0.53809031  0.57877825  0.69681745     0.83300
N1736       N  0.53014591  0.57872443  0.74219256    -0.79200
C1737       C  0.54243501  0.51666169  0.61378799     0.03700
C1738       C  0.57576905  0.00357548  0.62804470    -0.12400
C1739       C  0.59659003  0.51549814  0.66377613     0.01200
C1740       C  0.58313582  0.53954336  0.68707603    -0.11000
C1741       C  0.54964333  0.55225960  0.67411955     0.03700
C1742       C  0.52972335  0.54125309  0.63693837    -0.10400
H1743       H  0.58654088  0.98504130  0.60998894     0.09300
H1744       H  0.59926170  0.54884629  0.71465784     0.06800
H1745       H  0.50445211  0.55189137  0.62614641     0.06700
C1746       C  0.90992002  0.94039702  0.82069316     0.03700
C1747       C  0.87472777  0.95114935  0.80873959    -0.12400
C1748       C  0.85596724  0.94029303  0.77021533     0.01200
C1749       C  0.87262618  0.91833520  0.74458591    -0.11000
C1750       C  0.90669557  0.90667403  0.75763749     0.03700
C1751       C  0.92559138  0.91791240  0.79533811    -0.10400
H1752       H  0.86230438  0.96805292  0.82907374     0.09300
H1753       H  0.85804948  0.90895061  0.71578745     0.06800
H1754       H  0.95173129  0.90849428  0.80591778     0.06700
O1755       O  0.93288962  0.91797031  0.99914800    -0.77900
C1756       C  0.88375619  0.50464549  0.50706801     0.83100
O1757       O  0.96125785  0.96272894  0.85663565    -0.79000
O1758       O  0.98253614  0.54911534  0.94940660    -0.80500
O1759       O  0.53042981  0.98065429  0.55845755    -0.80300
O1760       O  0.98924145  0.91884252  0.53043973    -0.78900
Zn1761     Zn  0.92877532  0.95606186  0.96538089     1.55700
O1762       O  0.49814010  0.52135809  0.55370766    -0.80300
Cd1763     Cd  0.51190801  0.95611917  0.50456558     1.59700
Cd1764     Cd  0.99640628  0.98241109  0.90357932     1.59600
O1765       O  0.55792916  0.94510526  0.96683891    -0.80300
O1766       O  0.97536199  0.97759750  0.96666686    -1.90800
Cd1767     Cd  0.96714885  0.51646391  0.99418367     1.59900
O1768       O  0.54932453  0.96448183  0.89802899    -0.80300
O1769       O  0.91128788  0.52182809  0.50836538    -0.78900
C1770       C  0.92936613  0.95119804  0.86129983     0.83600
C1771       C  0.95805161  0.90673916  0.52397892     0.83300
O1772       O  0.88690012  0.97874742  0.99367302    -0.77900
C1773       C  0.52233819  0.50558028  0.57333231     0.84100
O1774       O  0.91394793  0.94817982  0.90016942    -0.78000
C1775       C  0.56904064  0.95023249  0.92630220     0.84200
C1776       C  0.99467299  0.54914888  0.90842815     0.84500
O1777       O  0.50070434  0.52575897  0.88685173    -0.80400
C1778       C  0.92986730  0.85416845  0.66786265     0.80800
N1779       N  0.92624738  0.87954898  0.69043103    -0.77500
C1780       C  0.91857578  0.87996348  0.73584743     0.83200
N1781       N  0.91337304  0.85491934  0.75856858    -0.77500
C1782       C  0.91623801  0.82952804  0.73625225     0.83300
N1783       N  0.92402438  0.82920701  0.69087610    -0.79200
C1784       C  0.95151512  0.82699534  0.54804811     0.03700
C1785       C  0.94252243  0.82757180  0.59485231    -0.12400
C1786       C  0.93817585  0.85376673  0.61821691     0.01200
C1787       C  0.94254147  0.87959846  0.59400834    -0.11000
C1788       C  0.95085799  0.87939562  0.54730801     0.03700
C1789       C  0.95525941  0.85318793  0.52434315    -0.10400
H1790       H  0.93967996  0.80754193  0.61336233     0.09300
H1791       H  0.93986731  0.90003943  0.61141872     0.06800
H1792       H  0.96250356  0.85331693  0.98838727     0.06700
loop_ 
_geom_bond_atom_site_label_1 
_geom_bond_atom_site_label_2 
_geom_bond_distance 
_geom_bond_site_symmetry_2 
_ccdc_geom_bond_type 
C1            C2   1.405       .  A
C1            C6   1.408       .  A
C1           C34   1.471       .  S
C2            C3   1.402       .  A
C2            H7   1.084       .  S
C3            C4   1.400       .  A
C3           C46   1.465       .  S
C4            C5   1.400       .  A
C4            H8   1.085       .  S
C5            C6   1.405       .  A
C5          C146   1.471       .  S
C6            H9   1.084       .  S
C10          C11   1.404       .  A
C10          C15   1.411       .  A
C10          C37   1.477       .  S
C11          C12   1.396       .  A
C11          H16   1.084       .  S
C12         C237   1.396   1_554  A
C12         C333   1.458   1_554  S
C13         C236   1.396       .  A
C13         C238   1.402       .  A
C13          H17   1.085       .  S
C14          C15   1.406       .  A
C14         C237   1.402   1_554  A
C14         C149   1.479       .  S
C15          H18   1.084       .  S
O19          C35   1.275       .  A
O19         Zn25   2.037       .  S
C20         C117   1.468       .  S
C20          O36   1.273       .  A
C20          O33   1.275       .  A
O21          C34   1.277       .  A
O21         Cd28   2.087       .  S
O22          C40   1.275       .  A
O22         Cd31   2.075       .  S
O23          C37   1.272       .  A
O23         Cd27   2.056       .  S
O24          C35   1.273       .  A
O24         Cd27   2.062       .  S
Zn25         O36   2.024       .  S
Zn25         O38   2.021       .  S
Zn25         O30   1.954       .  S
O26          C37   1.276       .  A
O26         Cd31   2.074       .  S
Cd27         O29   2.052       .  S
Cd27         O30   1.992       .  S
Cd28         O32   2.093       .  S
Cd28         O41   2.082       .  S
Cd28         O30   2.008       .  S
O29          C39   1.273       .  A
O30         Cd31   2.002       .  S
Cd31         O33   2.070       .  S
O32          C39   1.277       .  A
C34          O38   1.275       .  A
C35          C52   1.468       .  S
C39         C126   1.482       .  S
C40          C98   1.488       .  S
C40          O41   1.278       .  A
C42          C50   1.485       .  S
C42         N267   1.360   1_554  A
C42         N271   1.361   1_554  A
N43          C44   1.357       .  A
N43         C266   1.360       .  A
C44          C59   1.464       .  S
C44          N45   1.355       .  A
N45          C46   1.355       .  A
C46          N47   1.358       .  A
N47         C266   1.361       .  A
C48          C49   1.402       .  A
C48          C53   1.403       .  A
C48          C76   1.469       .  S
C49          C50   1.407       .  A
C49          H54   1.084       .  S
C50          C51   1.407       .  A
C51          C52   1.402       .  A
C51          H55   1.084       .  S
C52          C53   1.403       .  A
C53          H56   1.084       .  S
C57          C58   1.402       .  A
C57          C62   1.408       .  A
C57          C90   1.469       .  S
C58          C59   1.399       .  A
C58          H63   1.085       .  S
C59          C60   1.399       .  A
C60          C61   1.405       .  A
C60          H64   1.084       .  S
C61          C62   1.408       .  A
C61         C207   1.483       .  S
C62          H65   1.084       .  S
C66          C67   1.407       .  A
C66         C519   1.412       .  A
C66          C93   1.481       .  S
C67          C68   1.399       .  A
C67          H72   1.085       .  S
C68         C293   1.397   1_554  A
C68         C335   1.460   1_554  S
C69         C292   1.397       .  A
C69         C294   1.397       .  A
C69          H73   1.085       .  S
C70         C293   1.397   1_554  A
C70         C519   1.403       .  A
C70         C188   1.469       .  S
C71         C514   1.412       .  A
C71         C518   1.403       .  A
C71          H74   1.084       .  S
O75         C539   1.273       .  A
O75         Zn81   2.023       .  S
C76          O92   1.275       .  A
C76          O89   1.273       .  A
O77          C90   1.277       .  A
O77         Cd84   2.082       .  S
O78          C96   1.274       .  A
O78         Cd87   2.056       .  S
O79          C93   1.277       .  A
O79         Cd83   2.081       .  S
O80          C91   1.275       .  A
O80         Cd83   2.068       .  S
Zn81         O92   2.036       .  S
Zn81         O94   2.016       .  S
Zn81         O86   1.956       .  S
O82         C541   1.273       .  A
O82         Cd87   2.061       .  S
Cd83         O85   2.076       .  S
Cd83        O534   2.001   1_545  S
Cd84         O97   2.089       .  S
Cd84        O536   2.079       .  S
Cd84         O86   2.009       .  S
O85          C95   1.275       .  A
O86         Cd87   1.992       .  S
O86        Cd531   2.001       .  S
Cd87         O89   2.067       .  S
O88          C95   1.277       .  A
O88        Cd532   2.079   1_545  S
C90          O94   1.273       .  A
C91         C171   1.468       .  S
C91         O523   1.273   1_545  A
C93         O530   1.273   1_545  A
C95         C102   1.488       .  S
C96         C180   1.482       .  S
C96          O97   1.276       .  A
C98          C99   1.404       .  A
C98         C103   1.410       .  A
C99         C100   1.405       .  A
C99         H104   1.083       .  S
C100        C101   1.405       .  A
C100        C107   1.484       .  S
C101        C102   1.406       .  A
C101        H105   1.083       .  S
C102        C103   1.410       .  A
C103        H106   1.083       .  S
C107        N108   1.360       .  A
C107        N112   1.360       .  A
N108        C109   1.356       .  A
C109        C236   1.458       .  S
C109        N334   1.353       .  A
N110        C333   1.353   1_554  A
N110        C335   1.353   1_554  A
C111        C292   1.460       .  S
C111        N112   1.358       .  A
C111        N334   1.353       .  A
C113        C114   1.405       .  A
C113        C118   1.407       .  A
C113        C147   1.471       .  S
C114        C115   1.402       .  A
C114        H119   1.085       .  S
C115        C116   1.398       .  A
C115        C165   1.464       .  S
C116        C117   1.398       .  A
C116        H120   1.085       .  S
C117        C118   1.403       .  A
C118        H121   1.084       .  S
C122        C123   1.405       .  A
C122        C127   1.411       .  A
C122        C152   1.478       .  S
C123        C124   1.397       .  A
C123        H128   1.084       .  S
C124        C125   1.398       .  A
C124        C214   1.463       .  S
C125        C126   1.404       .  A
C125        H129   1.085       .  S
C126        C127   1.406       .  A
C127        H130   1.084       .  S
O131        C147   1.275       .  A
O131       Zn361   2.023   1_554  S
C132       C1054   1.471       .  S
C132        O145   1.273       .  A
C132       O1044   1.276       .  A
O133        C146   1.276       .  A
O133      Cd1036   2.074   1_455  S
O134        C152   1.273       .  A
O134       Cd143   2.057       .  S
O135        C149   1.276       .  A
O135       Cd139   2.084       .  S
O136       C1043   1.277       .  A
O136       Cd139   2.084       .  S
Zn137       O148   2.043       .  S
Zn137       O150   2.030       .  S
Zn137       O355   2.023       .  S
Zn137      O1038   1.954   1_455  S
O138        C373   1.273       .  A
O138       Cd143   2.050       .  S
Cd139       O141   2.078       .  S
Cd139       O366   2.010   1_554  S
Cd140       O144   2.072       .  S
Cd140       O153   2.075       .  S
Cd140      O1029   2.074       .  S
Cd140       O142   2.001       .  S
O141        C151   1.277       .  A
O142      Zn1033   1.954       .  S
O142       Cd143   1.992       .  S
O142       Cd363   2.010       .  S
Cd143       O145   2.066       .  S
O144        C375   1.275       .  A
C146        O150   1.275       .  A
C147       O1032   1.277   1_455  A
O148       C1028   1.276   1_455  A
C149        O362   1.273   1_554  A
C151        C216   1.486       .  S
C151        O368   1.275   1_554  A
C152        O153   1.276       .  A
C154        C155   1.409       .  A
C154        C159   1.410   1_455  A
C154       C1104   1.490   1_455  S
C155        C156   1.408       .  A
C155        H160   1.083       .  S
C156        C157   1.405       .  A
C156        C163   1.488       .  S
C157        C158   1.401       .  A
C157        H161   1.084       .  S
C158        C159   1.404   1_455  A
C158       C1028   1.471   1_455  S
C159       H1058   1.084       .  S
H162       C1055   1.084       .  S
C163        N164   1.362       .  A
C163        N168   1.360       .  A
N164        C165   1.359       .  A
C165        N166   1.354       .  A
N166        C167   1.354       .  A
C167        C173   1.463       .  S
C167        N168   1.358       .  A
C169        C174   1.407       .  A
C169        C618   1.411       .  A
C169        C205   1.480       .  S
C170        C617   1.411       .  A
C170        C619   1.401       .  A
C170        H175   1.084       .  S
C171        C172   1.398       .  A
C171        C618   1.401       .  A
C172        C173   1.398       .  A
C172        H176   1.085       .  S
C173        C174   1.400       .  A
C174        H177   1.085       .  S
C178        C179   1.409       .  A
C178        C183   1.402       .  A
C178        C202   1.468       .  S
C179        C180   1.408       .  A
C179        H184   1.084       .  S
C180        C181   1.403       .  A
C181        C182   1.397       .  A
C181        H185   1.085       .  S
C182        C183   1.398       .  A
C182        C212   1.462       .  S
C183        H186   1.085       .  S
O187        C427   1.275       .  A
O187       Zn193   2.035       .  S
C188        O201   1.276       .  A
C188        O876   1.273   1_544  A
O189        C202   1.277       .  A
O189       Cd196   2.081       .  S
O190        C208   1.276       .  A
O190       Cd199   2.082       .  S
O191        C653   1.273       .  A
O191       Cd195   2.058       .  S
O192        C203   1.272       .  A
O192      Cd1091   2.062       .  S
Zn193       O204   2.021       .  S
Zn193       O206   2.015       .  S
Zn193       O198   1.957       .  S
O194        C205   1.277   1_655  A
O194      Cd1319   2.081   1_554  S
Cd195      O1088   2.062   1_455  S
Cd195       O421   2.059   1_554  S
Cd195      O1318   1.992   1_454  S
Cd196      O1096   2.090       .  S
Cd196      O1553   2.082       .  S
Cd196       O198   2.008       .  S
O197        C207   1.274       .  A
O197       Cd419   2.059       .  S
O198      Cd1315   1.992       .  S
O198       Cd647   2.003       .  S
Cd199      O1314   2.081       .  S
Cd199       O425   2.073       .  S
Cd199       O646   2.003   1_545  S
O200        C207   1.277       .  A
O200      Cd1092   2.090   1_455  S
O201       Cd423   2.073   1_554  S
C202        O206   1.273       .  A
C203        C220   1.467       .  S
C203        O411   1.275   1_554  A
O204        C860   1.273       .  A
C205        O639   1.273   1_545  A
C208       C1050   1.490       .  S
C208       O1105   1.277       .  A
O209       C1104   1.277   1_455  A
O209      Cd1540   2.082   1_445  S
C210        C218   1.483       .  S
C210        N211   1.360       .  A
C210        N215   1.359       .  A
N211        C212   1.357       .  A
C212        N213   1.355       .  A
N213        C214   1.354       .  A
C214        N215   1.357       .  A
C216        C217   1.407       .  A
C216        C221   1.409       .  A
C217        C218   1.407       .  A
C217        H222   1.083       .  S
C218        C219   1.404       .  A
C219        C220   1.399       .  A
C219        H223   1.084       .  S
C220        C221   1.402       .  A
C221        H448   1.084   1_554  S
H224        C445   1.084       .  S
C225        C226   1.405       .  A
C225        C230   1.408       .  A
C225        C258   1.471       .  S
C226        C227   1.402       .  A
C226        H231   1.084       .  S
C227        C228   1.400       .  A
C227        C270   1.465       .  S
C228        C229   1.400       .  A
C228        H232   1.085       .  S
C229        C230   1.405       .  A
C229        C370   1.471       .  S
C230        H233   1.084       .  S
C234        C235   1.404       .  A
C234        C239   1.411       .  A
C234        C261   1.477       .  S
C235        C236   1.396       .  A
C235        H240   1.084       .  S
C237        H241   1.085       .  S
C238        C239   1.406       .  A
C238        C373   1.479       .  S
C239        H242   1.084       .  S
O243        C259   1.275       .  A
O243       Zn249   2.037       .  S
C244        C341   1.468       .  S
C244        O260   1.273       .  A
C244        O257   1.275       .  A
O245        C258   1.277       .  A
O245       Cd252   2.087       .  S
O246        C264   1.275       .  A
O246       Cd255   2.075       .  S
O247        C261   1.272       .  A
O247       Cd251   2.056       .  S
O248        C259   1.273       .  A
O248       Cd251   2.062       .  S
Zn249       O260   2.024       .  S
Zn249       O262   2.021       .  S
Zn249       O254   1.954       .  S
O250        C261   1.276       .  A
O250       Cd255   2.074       .  S
Cd251       O253   2.052       .  S
Cd251       O254   1.992       .  S
Cd252       O256   2.093       .  S
Cd252       O265   2.082       .  S
Cd252       O254   2.008       .  S
O253        C263   1.273       .  A
O254       Cd255   2.002       .  S
Cd255       O257   2.070       .  S
O256        C263   1.277       .  A
C258        O262   1.275       .  A
C259        C276   1.468       .  S
C263        C350   1.482       .  S
C264        C322   1.488       .  S
C264        O265   1.278       .  A
C266        C274   1.485       .  S
N267        C268   1.357       .  A
C268        C283   1.464       .  S
C268        N269   1.355       .  A
N269        C270   1.355       .  A
C270        N271   1.358       .  A
C272        C273   1.402       .  A
C272        C277   1.403       .  A
C272        C300   1.469       .  S
C273        C274   1.407       .  A
C273        H278   1.084       .  S
C274        C275   1.407       .  A
C275        C276   1.402       .  A
C275        H279   1.084       .  S
C276        C277   1.403       .  A
C277        H280   1.084       .  S
C281        C282   1.402       .  A
C281        C286   1.408       .  A
C281        C314   1.469       .  S
C282        C283   1.399       .  A
C282        H287   1.085       .  S
C283        C284   1.399       .  A
C284        C285   1.405       .  A
C284        H288   1.084       .  S
C285        C286   1.408       .  A
C285        C431   1.483       .  S
C286        H289   1.084       .  S
C290        C291   1.407       .  A
C290        C743   1.412       .  A
C290        C317   1.481       .  S
C291        C292   1.399       .  A
C291        H296   1.085       .  S
C293        H297   1.085       .  S
C294        C743   1.403       .  A
C294        C412   1.469       .  S
C295        C738   1.412       .  A
C295        C742   1.403       .  A
C295        H298   1.084       .  S
O299        C763   1.273       .  A
O299       Zn305   2.023       .  S
C300        O316   1.275       .  A
C300        O313   1.273       .  A
O301        C314   1.277       .  A
O301       Cd308   2.082       .  S
O302        C320   1.274       .  A
O302       Cd311   2.056       .  S
O303        C317   1.277       .  A
O303       Cd307   2.081       .  S
O304        C315   1.275       .  A
O304       Cd307   2.068       .  S
Zn305       O316   2.036       .  S
Zn305       O318   2.016       .  S
Zn305       O310   1.956       .  S
O306        C765   1.273       .  A
O306       Cd311   2.061       .  S
Cd307       O309   2.076       .  S
Cd307       O758   2.001   1_545  S
Cd308       O760   2.079       .  S
Cd308       O321   2.089       .  S
Cd308       O310   2.009       .  S
O309        C319   1.275       .  A
O310       Cd755   2.001       .  S
O310       Cd311   1.992       .  S
Cd311       O313   2.067       .  S
O312        C319   1.277       .  A
O312       Cd756   2.079   1_545  S
C314        O318   1.273       .  A
C315        C395   1.468       .  S
C315        O747   1.273   1_545  A
C317        O754   1.273   1_545  A
C319        C326   1.488       .  S
C320        C404   1.482       .  S
C320        O321   1.276       .  A
C322        C323   1.404       .  A
C322        C327   1.410       .  A
C323        C324   1.405       .  A
C323        H328   1.083       .  S
C324        C325   1.405       .  A
C324        C331   1.484       .  S
C325        C326   1.406       .  A
C325        H329   1.083       .  S
C326        C327   1.410       .  A
C327        H330   1.083       .  S
C331        N332   1.360       .  A
C331        N336   1.360       .  A
N332        C333   1.356       .  A
C335        N336   1.358       .  A
C337        C338   1.405       .  A
C337        C342   1.407       .  A
C337        C371   1.471       .  S
C338        C339   1.402       .  A
C338        H343   1.084       .  S
C339        C340   1.398       .  A
C339        C389   1.464       .  S
C340        C341   1.398       .  A
C340        H344   1.085       .  S
C341        C342   1.403       .  A
C342        H345   1.084       .  S
C346        C347   1.405       .  A
C346        C351   1.411       .  A
C346        C376   1.478       .  S
C347        C348   1.397       .  A
C347        H352   1.084       .  S
C348        C349   1.398       .  A
C348        C438   1.463       .  S
C349        C350   1.404       .  A
C349        H353   1.085       .  S
C350        C351   1.406       .  A
C351        H354   1.084       .  S
O355        C371   1.275       .  A
C356       C1278   1.471       .  S
C356       O1268   1.276       .  A
C356        O369   1.273       .  A
O357        C370   1.276       .  A
O357      Cd1260   2.074   1_455  S
O358        C376   1.273       .  A
O358       Cd367   2.057       .  S
O359        C373   1.276       .  A
O359       Cd363   2.084       .  S
O360       C1267   1.277       .  A
O360       Cd363   2.084       .  S
Zn361       O372   2.043       .  S
Zn361       O374   2.030       .  S
Zn361      O1262   1.954   1_455  S
O362       Cd367   2.050       .  S
Cd363       O365   2.078       .  S
Cd364      O1253   2.074       .  S
Cd364       O368   2.072       .  S
Cd364       O377   2.075       .  S
Cd364       O366   2.001       .  S
O365        C375   1.277       .  A
O366      Zn1257   1.954       .  S
O366       Cd367   1.992       .  S
Cd367       O369   2.066       .  S
C370        O374   1.275       .  A
C371       O1256   1.277   1_455  A
O372       C1252   1.276   1_455  A
C375        C440   1.486       .  S
C376        O377   1.276       .  A
C378        C379   1.409       .  A
C378        C383   1.410   1_455  A
C378       C1328   1.490   1_455  S
C379        C380   1.408       .  A
C379        H384   1.083       .  S
C380        C381   1.405       .  A
C380        C387   1.488       .  S
C381        C382   1.401       .  A
C381        H385   1.084       .  S
C382        C383   1.404   1_455  A
C382       C1252   1.471   1_455  S
C383       H1282   1.084       .  S
H386       C1279   1.084       .  S
C387        N388   1.362       .  A
C387        N392   1.360       .  A
N388        C389   1.359       .  A
C389        N390   1.354       .  A
N390        C391   1.354       .  A
C391        C397   1.463       .  S
C391        N392   1.358       .  A
C393        C842   1.411       .  A
C393        C398   1.407       .  A
C393        C429   1.480       .  S
C394        C841   1.411       .  A
C394        C843   1.401       .  A
C394        H399   1.084       .  S
C395        C842   1.401       .  A
C395        C396   1.398       .  A
C396        C397   1.398       .  A
C396        H400   1.085       .  S
C397        C398   1.400       .  A
C398        H401   1.085       .  S
C402        C403   1.409       .  A
C402        C407   1.402       .  A
C402        C426   1.468       .  S
C403        C404   1.408       .  A
C403        H408   1.084       .  S
C404        C405   1.403       .  A
C405        C406   1.397       .  A
C405        H409   1.085       .  S
C406        C407   1.398       .  A
C406        C436   1.462       .  S
C407        H410   1.085       .  S
O411       Zn417   2.035       .  S
C412        O652   1.273   1_545  A
C412        O425   1.276       .  A
O413        C426   1.277       .  A
O413       Cd420   2.081       .  S
O414        C432   1.276       .  A
O414       Cd423   2.082       .  S
O415        C877   1.273       .  A
O415       Cd419   2.058       .  S
O416        C427   1.272       .  A
O416      Cd1315   2.062       .  S
Zn417       O428   2.021       .  S
Zn417       O430   2.015       .  S
Zn417       O422   1.957       .  S
O418        C429   1.277   1_655  A
O418      Cd1095   2.081       .  S
Cd419      O1312   2.062   1_455  S
Cd419      O1094   1.992   1_455  S
Cd420      O1320   2.090       .  S
Cd420      O1777   2.082       .  S
Cd420       O422   2.008       .  S
O421        C431   1.274       .  A
O422      Cd1091   1.992   1_556  S
O422       Cd871   2.003       .  S
Cd423      O1090   2.081   1_556  S
Cd423       O870   2.003   1_545  S
O424        C431   1.277       .  A
O424      Cd1316   2.090   1_455  S
C426        O430   1.273       .  A
C427        C444   1.467       .  S
O428        C636   1.273   1_556  A
C429        O863   1.273   1_545  A
C432       C1274   1.490       .  S
C432       O1329   1.277       .  A
O433       C1328   1.277   1_455  A
O433      Cd1764   2.082   1_445  S
C434        C442   1.483       .  S
C434        N435   1.360       .  A
C434        N439   1.359       .  A
N435        C436   1.357       .  A
C436        N437   1.355       .  A
N437        C438   1.354       .  A
C438        N439   1.357       .  A
C440        C441   1.407       .  A
C440        C445   1.409       .  A
C441        C442   1.407       .  A
C441        H446   1.083       .  S
C442        C443   1.404       .  A
C443        C444   1.399       .  A
C443        H447   1.084       .  S
C444        C445   1.402       .  A
C449        C450   1.405       .  A
C449        C454   1.408       .  A
C449        C482   1.471       .  S
C450        C451   1.402       .  A
C450        H455   1.084       .  S
C451        C452   1.400       .  A
C451        C494   1.465       .  S
C452        C453   1.400       .  A
C452        H456   1.085       .  S
C453        C454   1.405       .  A
C453        C594   1.471       .  S
C454        H457   1.084       .  S
C458        C459   1.404       .  A
C458        C463   1.411       .  A
C458        C485   1.477       .  S
C459        C460   1.396       .  A
C459        H464   1.084       .  S
C460        C685   1.396   1_554  A
C460        C781   1.458   1_554  S
C461        C684   1.396       .  A
C461        C686   1.402       .  A
C461        H465   1.085       .  S
C462        C685   1.402   1_554  A
C462        C463   1.406       .  A
C462        C597   1.479       .  S
C463        H466   1.084       .  S
O467        C483   1.275       .  A
O467       Zn473   2.037       .  S
C468        C565   1.468       .  S
C468        O484   1.273       .  A
C468        O481   1.275       .  A
O469        C482   1.277       .  A
O469       Cd476   2.087       .  S
O470        C488   1.275       .  A
O470       Cd479   2.075       .  S
O471        C485   1.272       .  A
O471       Cd475   2.056       .  S
O472        C483   1.272       .  A
O472       Cd475   2.062       .  S
Zn473       O484   2.024       .  S
Zn473       O486   2.021       .  S
Zn473       O478   1.954       .  S
O474        C485   1.276       .  A
O474       Cd479   2.074       .  S
Cd475       O477   2.052       .  S
Cd475       O478   1.992       .  S
Cd476       O480   2.093       .  S
Cd476       O489   2.082       .  S
Cd476       O478   2.008       .  S
O477        C487   1.273       .  A
O478       Cd479   2.002       .  S
Cd479       O481   2.070       .  S
O480        C487   1.277       .  A
C482        O486   1.275       .  A
C483        C500   1.468       .  S
C487        C574   1.482       .  S
C488        C546   1.488       .  S
C488        O489   1.278       .  A
C490        C498   1.485       .  S
C490        N715   1.360   1_554  A
C490        N719   1.361   1_554  A
N491        C714   1.360       .  A
N491        C492   1.357       .  A
C492        C507   1.464       .  S
C492        N493   1.355       .  A
N493        C494   1.355       .  A
C494        N495   1.358       .  A
N495        C714   1.361       .  A
C496        C497   1.402       .  A
C496        C501   1.403       .  A
C496        C524   1.469       .  S
C497        C498   1.407       .  A
C497        H502   1.084       .  S
C498        C499   1.407       .  A
C499        C500   1.402       .  A
C499        H503   1.084       .  S
C500        C501   1.403       .  A
C501        H504   1.084       .  S
C505        C506   1.402       .  A
C505        C510   1.408       .  A
C505        C538   1.469       .  S
C506        C507   1.399       .  A
C506        H511   1.085       .  S
C507        C508   1.399       .  A
C508        C509   1.405       .  A
C508        H512   1.084       .  S
C509        C510   1.408       .  A
C509        C655   1.483       .  S
C510        H513   1.084       .  S
C514        C515   1.407       .  A
C514        C541   1.481       .  S
C515        C516   1.399       .  A
C515        H520   1.085       .  S
C516        C741   1.397   1_554  A
C516        C783   1.460   1_554  S
C517        C740   1.397       .  A
C517        C742   1.397       .  A
C517        H521   1.085       .  S
C518        C741   1.397   1_554  A
C518        C636   1.469       .  S
C519        H522   1.084   1_545  S
O523       Zn529   2.023       .  S
C524        O540   1.275       .  A
C524        O537   1.273       .  A
O525        C538   1.277       .  A
O525       Cd532   2.082       .  S
O526        C544   1.274       .  A
O526       Cd535   2.056       .  S
O527        C541   1.277       .  A
O527       Cd531   2.081       .  S
O528        C539   1.275       .  A
O528       Cd531   2.068       .  S
Zn529       O540   2.036       .  S
Zn529       O542   2.016       .  S
Zn529       O534   1.956       .  S
O530       Cd535   2.061       .  S
Cd531       O533   2.076       .  S
Cd532       O545   2.089       .  S
Cd532       O534   2.009       .  S
O533        C543   1.275       .  A
O534       Cd535   1.992       .  S
Cd535       O537   2.067       .  S
O536        C543   1.277       .  A
C538        O542   1.273       .  A
C539        C619   1.468       .  S
C543        C550   1.488       .  S
C544        C628   1.482       .  S
C544        O545   1.276       .  A
C546        C547   1.404       .  A
C546        C551   1.410       .  A
C547        C548   1.405       .  A
C547        H552   1.083       .  S
C548        C549   1.405       .  A
C548        C555   1.484       .  S
C549        C550   1.406       .  A
C549        H553   1.083       .  S
C550        C551   1.410       .  A
C551        H554   1.083       .  S
C555        N556   1.360       .  A
C555        N560   1.360       .  A
N556        C557   1.356       .  A
C557        C684   1.458       .  S
C557        N782   1.353       .  A
N558        C781   1.353   1_554  A
N558        C783   1.353   1_554  A
C559        C740   1.460       .  S
C559        N782   1.353       .  A
C559        N560   1.358       .  A
C561        C562   1.405       .  A
C561        C566   1.407       .  A
C561        C595   1.471       .  S
C562        C563   1.402       .  A
C562        H567   1.085       .  S
C563        C564   1.398       .  A
C563        C613   1.464       .  S
C564        C565   1.398       .  A
C564        H568   1.085       .  S
C565        C566   1.403       .  A
C566        H569   1.084       .  S
C570        C571   1.405       .  A
C570        C575   1.411       .  A
C570        C600   1.478       .  S
C571        C572   1.397       .  A
C571        H576   1.084       .  S
C572        C573   1.398       .  A
C572        C662   1.463       .  S
C573        C574   1.404       .  A
C573        H577   1.085       .  S
C574        C575   1.406       .  A
C575        H578   1.084       .  S
O579        C595   1.275       .  A
O579       Zn809   2.023   1_554  S
C580       C1502   1.471       .  S
C580       O1492   1.276       .  A
C580        O593   1.273       .  A
O581        C594   1.276       .  A
O581      Cd1484   2.074   1_455  S
O582        C600   1.273       .  A
O582       Cd591   2.057       .  S
O583        C597   1.276       .  A
O583       Cd587   2.084       .  S
O584       C1491   1.277       .  A
O584       Cd587   2.084       .  S
Zn585       O803   2.023       .  S
Zn585       O596   2.043       .  S
Zn585       O598   2.030       .  S
Zn585      O1486   1.954   1_455  S
O586        C821   1.273       .  A
O586       Cd591   2.050       .  S
Cd587       O589   2.078       .  S
Cd587       O814   2.010   1_554  S
Cd588      O1477   2.074       .  S
Cd588       O592   2.072       .  S
Cd588       O601   2.075       .  S
Cd588       O590   2.001       .  S
O589        C599   1.277       .  A
O590      Zn1481   1.954       .  S
O590       Cd811   2.010       .  S
O590       Cd591   1.992       .  S
Cd591       O593   2.066       .  S
O592        C823   1.275       .  A
C594        O598   1.275       .  A
C595       O1480   1.277   1_455  A
O596       C1476   1.276   1_455  A
C597        O810   1.273   1_554  A
C599        C664   1.486       .  S
C599        O816   1.275   1_554  A
C600        O601   1.276       .  A
C602        C603   1.409       .  A
C602        C607   1.410   1_455  A
C602       C1552   1.490   1_455  S
C603        C604   1.408       .  A
C603        H608   1.083       .  S
C604        C605   1.405       .  A
C604        C611   1.488       .  S
C605        C606   1.401       .  A
C605        H609   1.084       .  S
C606        C607   1.404   1_455  A
C606       C1476   1.471   1_455  S
C607       H1506   1.084       .  S
H610       C1503   1.084       .  S
C611        N612   1.362       .  A
C611        N616   1.360       .  A
N612        C613   1.359       .  A
C613        N614   1.354       .  A
N614        C615   1.354       .  A
C615        C621   1.463       .  S
C615        N616   1.358       .  A
C617        C622   1.407       .  A
C617        C653   1.480       .  S
C618        H623   1.084   1_545  S
C619        C620   1.398       .  A
C620        C621   1.398       .  A
C620        H624   1.085       .  S
C621        C622   1.400       .  A
C622        H625   1.084       .  S
C626        C627   1.409       .  A
C626        C631   1.402       .  A
C626        C650   1.468       .  S
C627        C628   1.408       .  A
C627        H632   1.084       .  S
C628        C629   1.403       .  A
C629        C630   1.397       .  A
C629        H633   1.085       .  S
C630        C631   1.398       .  A
C630        C660   1.462       .  S
C631        H634   1.085       .  S
O635        C875   1.275       .  A
O635       Zn641   2.035       .  S
C636        O649   1.276       .  A
O637        C650   1.277       .  A
O637       Cd644   2.081       .  S
O638        C656   1.276       .  A
O638       Cd647   2.082       .  S
O639       Cd643   2.058       .  S
O640        C651   1.272       .  A
O640      Cd1539   2.062       .  S
Zn641       O652   2.021       .  S
Zn641       O654   2.015       .  S
Zn641       O646   1.957       .  S
O642        C653   1.277   1_655  A
O642      Cd1767   2.081   1_554  S
Cd643      O1536   2.062   1_455  S
Cd643       O869   2.059   1_554  S
Cd643      O1766   1.992   1_454  S
Cd644      O1544   2.090       .  S
Cd644      O1105   2.082   1_565  S
Cd644       O646   2.008       .  S
O645        C655   1.274       .  A
O645       Cd867   2.059       .  S
O646      Cd1763   1.992       .  S
Cd647      O1762   2.081       .  S
Cd647       O873   2.073       .  S
O648        C655   1.277       .  A
O648      Cd1540   2.090   1_455  S
O649       Cd871   2.073   1_554  S
C650        O654   1.273       .  A
C651        C668   1.467       .  S
C651        O859   1.275   1_554  A
C656       C1498   1.490       .  S
C656       O1553   1.277       .  A
O657       C1552   1.277   1_455  A
O657      Cd1092   2.082   1_455  S
C658        C666   1.483       .  S
C658        N659   1.360       .  A
C658        N663   1.359       .  A
N659        C660   1.357       .  A
C660        N661   1.355       .  A
N661        C662   1.354       .  A
C662        N663   1.357       .  A
C664        C665   1.407       .  A
C664        C669   1.409       .  A
C665        C666   1.407       .  A
C665        H670   1.083       .  S
C666        C667   1.404       .  A
C667        C668   1.399       .  A
C667        H671   1.084       .  S
C668        C669   1.402       .  A
C669        H896   1.084   1_554  S
H672        C893   1.084       .  S
C673        C674   1.405       .  A
C673        C678   1.408       .  A
C673        C706   1.471       .  S
C674        C675   1.402       .  A
C674        H679   1.084       .  S
C675        C676   1.400       .  A
C675        C718   1.465       .  S
C676        C677   1.400       .  A
C676        H680   1.085       .  S
C677        C678   1.405       .  A
C677        C818   1.471       .  S
C678        H681   1.084       .  S
C682        C683   1.404       .  A
C682        C687   1.411       .  A
C682        C709   1.477       .  S
C683        C684   1.396       .  A
C683        H688   1.084       .  S
C685        H689   1.085       .  S
C686        C687   1.406       .  A
C686        C821   1.479       .  S
C687        H690   1.084       .  S
O691        C707   1.275       .  A
O691       Zn697   2.037       .  S
C692        C789   1.468       .  S
C692        O708   1.273       .  A
C692        O705   1.275       .  A
O693        C706   1.277       .  A
O693       Cd700   2.087       .  S
O694        C712   1.275       .  A
O694       Cd703   2.075       .  S
O695        C709   1.272       .  A
O695       Cd699   2.056       .  S
O696        C707   1.272       .  A
O696       Cd699   2.062       .  S
Zn697       O708   2.024       .  S
Zn697       O710   2.021       .  S
Zn697       O702   1.954       .  S
O698        C709   1.276       .  A
O698       Cd703   2.074       .  S
Cd699       O701   2.052       .  S
Cd699       O702   1.992       .  S
Cd700       O704   2.093       .  S
Cd700       O713   2.082       .  S
Cd700       O702   2.008       .  S
O701        C711   1.273       .  A
O702       Cd703   2.002       .  S
Cd703       O705   2.070       .  S
O704        C711   1.277       .  A
C706        O710   1.275       .  A
C707        C724   1.468       .  S
C711        C798   1.482       .  S
C712        C770   1.488       .  S
C712        O713   1.278       .  A
C714        C722   1.485       .  S
N715        C716   1.357       .  A
C716        C731   1.464       .  S
C716        N717   1.355       .  A
N717        C718   1.355       .  A
C718        N719   1.358       .  A
C720        C721   1.402       .  A
C720        C725   1.403       .  A
C720        C748   1.469       .  S
C721        C722   1.407       .  A
C721        H726   1.084       .  S
C722        C723   1.407       .  A
C723        C724   1.402       .  A
C723        H727   1.084       .  S
C724        C725   1.403       .  A
C725        H728   1.084       .  S
C729        C730   1.402       .  A
C729        C734   1.408       .  A
C729        C762   1.469       .  S
C730        C731   1.399       .  A
C730        H735   1.085       .  S
C731        C732   1.399       .  A
C732        C733   1.405       .  A
C732        H736   1.084       .  S
C733        C734   1.408       .  A
C733        C879   1.483       .  S
C734        H737   1.084       .  S
C738        C739   1.407       .  A
C738        C765   1.481       .  S
C739        C740   1.399       .  A
C739        H744   1.085       .  S
C741        H745   1.085       .  S
C742        C860   1.469       .  S
C743        H746   1.084   1_545  S
O747       Zn753   2.023       .  S
C748        O764   1.275       .  A
C748        O761   1.273       .  A
O749        C762   1.277       .  A
O749       Cd756   2.082       .  S
O750        C768   1.274       .  A
O750       Cd759   2.056       .  S
O751        C765   1.277       .  A
O751       Cd755   2.081       .  S
O752        C763   1.275       .  A
O752       Cd755   2.068       .  S
Zn753       O764   2.036       .  S
Zn753       O766   2.016       .  S
Zn753       O758   1.956       .  S
O754       Cd759   2.061       .  S
Cd755       O757   2.076       .  S
Cd756       O769   2.089       .  S
Cd756       O758   2.009       .  S
O757        C767   1.275       .  A
O758       Cd759   1.992       .  S
Cd759       O761   2.067       .  S
O760        C767   1.277       .  A
C762        O766   1.273       .  A
C763        C843   1.468       .  S
C767        C774   1.488       .  S
C768        C852   1.482       .  S
C768        O769   1.276       .  A
C770        C771   1.404       .  A
C770        C775   1.410       .  A
C771        C772   1.405       .  A
C771        H776   1.083       .  S
C772        C773   1.405       .  A
C772        C779   1.484       .  S
C773        C774   1.406       .  A
C773        H777   1.083       .  S
C774        C775   1.410       .  A
C775        H778   1.083       .  S
C779        N780   1.360       .  A
C779        N784   1.360       .  A
N780        C781   1.356       .  A
C783        N784   1.358       .  A
C785        C786   1.405       .  A
C785        C790   1.407       .  A
C785        C819   1.471       .  S
C786        C787   1.402       .  A
C786        H791   1.085       .  S
C787        C788   1.398       .  A
C787        C837   1.464       .  S
C788        C789   1.398       .  A
C788        H792   1.085       .  S
C789        C790   1.403       .  A
C790        H793   1.084       .  S
C794        C795   1.405       .  A
C794        C799   1.411       .  A
C794        C824   1.478       .  S
C795        C796   1.397       .  A
C795        H800   1.084       .  S
C796        C797   1.398       .  A
C796        C886   1.463       .  S
C797        C798   1.404       .  A
C797        H801   1.085       .  S
C798        C799   1.406       .  A
C799        H802   1.084       .  S
O803        C819   1.275       .  A
C804       C1726   1.471       .  S
C804       O1716   1.276       .  A
C804        O817   1.273       .  A
O805        C818   1.276       .  A
O805      Cd1708   2.074   1_455  S
O806        C824   1.273       .  A
O806       Cd815   2.057       .  S
O807        C821   1.276       .  A
O807       Cd811   2.084       .  S
O808       C1715   1.277       .  A
O808       Cd811   2.084       .  S
Zn809       O820   2.043       .  S
Zn809       O822   2.030       .  S
Zn809      O1710   1.954   1_455  S
O810       Cd815   2.050       .  S
Cd811       O813   2.078       .  S
Cd812      O1701   2.074       .  S
Cd812       O816   2.072       .  S
Cd812       O825   2.075       .  S
Cd812       O814   2.001       .  S
O813        C823   1.277       .  A
O814      Zn1705   1.954       .  S
O814       Cd815   1.992       .  S
Cd815       O817   2.066       .  S
C818        O822   1.275       .  A
C819       O1704   1.277   1_455  A
O820       C1700   1.276   1_455  A
C823        C888   1.486       .  S
C824        O825   1.276       .  A
C826        C827   1.409       .  A
C826        C831   1.410   1_455  A
C826       C1776   1.490   1_455  S
C827        C828   1.408       .  A
C827        H832   1.083       .  S
C828        C829   1.405       .  A
C828        C835   1.488       .  S
C829        C830   1.401       .  A
C829        H833   1.084       .  S
C830        C831   1.404   1_455  A
C830       C1700   1.471   1_455  S
C831       H1730   1.084       .  S
H834       C1727   1.084       .  S
C835        N836   1.362       .  A
C835        N840   1.360       .  A
N836        C837   1.359       .  A
C837        N838   1.354       .  A
N838        C839   1.354       .  A
C839        C845   1.463       .  S
C839        N840   1.358       .  A
C841        C846   1.407       .  A
C841        C877   1.480       .  S
C842        H847   1.084   1_545  S
C843        C844   1.398       .  A
C844        C845   1.398       .  A
C844        H848   1.085       .  S
C845        C846   1.400       .  A
C846        H849   1.084       .  S
C850        C851   1.409       .  A
C850        C855   1.402       .  A
C850        C874   1.468       .  S
C851        C852   1.408       .  A
C851        H856   1.084       .  S
C852        C853   1.403       .  A
C853        C854   1.397       .  A
C853        H857   1.085       .  S
C854        C855   1.398       .  A
C854        C884   1.462       .  S
C855        H858   1.085       .  S
O859       Zn865   2.035       .  S
C860        O873   1.276       .  A
O861        C874   1.277       .  A
O861       Cd868   2.081       .  S
O862        C880   1.276       .  A
O862       Cd871   2.082       .  S
O863       Cd867   2.058       .  S
O864        C875   1.272       .  A
O864      Cd1763   2.062       .  S
Zn865       O876   2.021       .  S
Zn865       O878   2.015       .  S
Zn865       O870   1.957       .  S
O866        C877   1.277   1_655  A
O866      Cd1543   2.081       .  S
Cd867      O1760   2.062   1_455  S
Cd867      O1542   1.992   1_455  S
Cd868      O1768   2.090       .  S
Cd868      O1329   2.082   1_565  S
Cd868       O870   2.008       .  S
O869        C879   1.274       .  A
O870      Cd1539   1.992   1_556  S
Cd871      O1538   2.081   1_556  S
O872        C879   1.277       .  A
O872      Cd1764   2.090   1_455  S
C874        O878   1.273       .  A
C875        C892   1.467       .  S
C880       C1722   1.490       .  S
C880       O1777   1.277       .  A
O881       C1776   1.277   1_455  A
O881      Cd1316   2.082   1_455  S
C882        C890   1.483       .  S
C882        N883   1.360       .  A
C882        N887   1.359       .  A
N883        C884   1.357       .  A
C884        N885   1.355       .  A
N885        C886   1.354       .  A
C886        N887   1.357       .  A
C888        C889   1.407       .  A
C888        C893   1.409       .  A
C889        C890   1.407       .  A
C889        H894   1.083       .  S
C890        C891   1.404       .  A
C891        C892   1.399       .  A
C891        H895   1.084       .  S
C892        C893   1.402       .  A
C897        C898   1.405       .  A
C897        C902   1.408       .  A
C897        C930   1.471       .  S
C898        C899   1.402       .  A
C898        H903   1.084       .  S
C899        C900   1.400       .  A
C899        C942   1.465       .  S
C900        C901   1.400       .  A
C900        H904   1.085       .  S
C901        C902   1.405       .  A
C901       C1042   1.471       .  S
C902        H905   1.084       .  S
C906        C907   1.404       .  A
C906        C911   1.411       .  A
C906        C933   1.477       .  S
C907        C908   1.396       .  A
C907        H912   1.084       .  S
C908       C1133   1.396   1_554  A
C908       C1229   1.458   1_554  S
C909       C1132   1.396       .  A
C909       C1134   1.402       .  A
C909        H913   1.085       .  S
C910       C1133   1.402   1_554  A
C910        C911   1.406       .  A
C910       C1045   1.479       .  S
C911        H914   1.084       .  S
O915        C931   1.275       .  A
O915       Zn921   2.037       .  S
C916       C1013   1.468       .  S
C916        O932   1.273       .  A
C916        O929   1.275       .  A
O917        C930   1.277       .  A
O917       Cd924   2.087       .  S
O918        C936   1.275       .  A
O918       Cd927   2.075       .  S
O919        C933   1.272       .  A
O919       Cd923   2.056       .  S
O920        C931   1.273       .  A
O920       Cd923   2.062       .  S
Zn921       O932   2.024       .  S
Zn921       O934   2.021       .  S
Zn921       O926   1.954       .  S
O922        C933   1.276       .  A
O922       Cd927   2.074       .  S
Cd923       O925   2.052       .  S
Cd923       O926   1.992       .  S
Cd924       O928   2.093       .  S
Cd924       O937   2.082       .  S
Cd924       O926   2.008       .  S
O925        C935   1.273       .  A
O926       Cd927   2.002       .  S
Cd927       O929   2.070       .  S
O928        C935   1.277       .  A
C930        O934   1.275       .  A
C931        C948   1.468       .  S
C935       C1022   1.482       .  S
C936        C994   1.488       .  S
C936        O937   1.278       .  A
C938        C946   1.485       .  S
C938       N1163   1.360   1_554  A
C938       N1167   1.361   1_554  A
N939       C1162   1.360       .  A
N939        C940   1.357       .  A
C940        C955   1.464       .  S
C940        N941   1.355       .  A
N941        C942   1.355       .  A
C942        N943   1.358       .  A
N943       C1162   1.361       .  A
C944        C945   1.402       .  A
C944        C949   1.403       .  A
C944        C972   1.469       .  S
C945        C946   1.407       .  A
C945        H950   1.084       .  S
C946        C947   1.407       .  A
C947        C948   1.402       .  A
C947        H951   1.084       .  S
C948        C949   1.403       .  A
C949        H952   1.084       .  S
C953        C954   1.402       .  A
C953        C958   1.408       .  A
C953        C986   1.469       .  S
C954        C955   1.399       .  A
C954        H959   1.085       .  S
C955        C956   1.399       .  A
C956        C957   1.405       .  A
C956        H960   1.084       .  S
C957        C958   1.408       .  A
C957       C1103   1.483       .  S
C958        H961   1.084       .  S
C962        C963   1.407       .  A
C962       C1415   1.412       .  A
C962        C989   1.481       .  S
C963        C964   1.399       .  A
C963        H968   1.085       .  S
C964       C1189   1.397   1_554  A
C964       C1231   1.460   1_554  S
C965       C1188   1.397       .  A
C965       C1190   1.397       .  A
C965        H969   1.085       .  S
C966       C1189   1.397   1_554  A
C966       C1415   1.403       .  A
C966       C1084   1.469       .  S
C967       C1410   1.412       .  A
C967       C1414   1.403       .  A
C967        H970   1.084       .  S
O971       C1435   1.273       .  A
O971       Zn977   2.023       .  S
C972        O988   1.275       .  A
C972        O985   1.273       .  A
O973        C986   1.277       .  A
O973       Cd980   2.082       .  S
O974        C992   1.274       .  A
O974       Cd983   2.056       .  S
O975        C989   1.277       .  A
O975       Cd979   2.081       .  S
O976        C987   1.275       .  A
O976       Cd979   2.068       .  S
Zn977       O988   2.036       .  S
Zn977       O990   2.016       .  S
Zn977       O982   1.956       .  S
O978       C1437   1.273       .  A
O978       Cd983   2.061       .  S
Cd979       O981   2.076       .  S
Cd979      O1430   2.001   1_545  S
Cd980      O1432   2.079       .  S
Cd980       O993   2.089       .  S
Cd980       O982   2.009       .  S
O981        C991   1.275       .  A
O982      Cd1427   2.001       .  S
O982       Cd983   1.992       .  S
Cd983       O985   2.067       .  S
O984        C991   1.277       .  A
O984      Cd1428   2.079   1_545  S
C986        O990   1.273       .  A
C987       C1067   1.468       .  S
C987       O1419   1.273   1_545  A
C989       O1426   1.273   1_545  A
C991        C998   1.488       .  S
C992       C1076   1.482       .  S
C992        O993   1.276       .  A
C994        C995   1.404       .  A
C994        C999   1.410       .  A
C995        C996   1.405       .  A
C995       H1000   1.083       .  S
C996        C997   1.405       .  A
C996       C1003   1.484       .  S
C997        C998   1.406       .  A
C997       H1001   1.083       .  S
C998        C999   1.410       .  A
C999       H1002   1.083       .  S
C1003      N1004   1.360       .  A
C1003      N1008   1.360       .  A
N1004      C1005   1.356       .  A
C1005      C1132   1.458       .  S
C1005      N1230   1.353       .  A
N1006      C1229   1.353   1_554  A
N1006      C1231   1.353   1_554  A
C1007      C1188   1.460       .  S
C1007      N1230   1.353       .  A
C1007      N1008   1.358       .  A
C1009      C1010   1.405       .  A
C1009      C1014   1.407       .  A
C1009      C1043   1.471       .  S
C1010      C1011   1.402       .  A
C1010      H1015   1.084       .  S
C1011      C1012   1.398       .  A
C1011      C1061   1.464       .  S
C1012      C1013   1.398       .  A
C1012      H1016   1.085       .  S
C1013      C1014   1.403       .  A
C1014      H1017   1.084       .  S
C1018      C1019   1.405       .  A
C1018      C1023   1.411       .  A
C1018      C1048   1.478       .  S
C1019      C1020   1.397       .  A
C1019      H1024   1.084       .  S
C1020      C1021   1.398       .  A
C1020      C1110   1.463       .  S
C1021      C1022   1.404       .  A
C1021      H1025   1.085       .  S
C1022      C1023   1.406       .  A
C1023      H1026   1.084       .  S
O1027      C1043   1.275       .  A
O1027     Zn1257   2.023   1_554  S
C1028      O1041   1.273       .  A
O1029      C1042   1.276       .  A
O1030      C1048   1.273       .  A
O1030     Cd1039   2.057       .  S
O1031      C1045   1.276       .  A
O1031     Cd1035   2.084       .  S
O1032     Cd1035   2.084       .  S
Zn1033     O1251   2.023       .  S
Zn1033     O1044   2.043       .  S
Zn1033     O1046   2.030       .  S
O1034      C1269   1.273       .  A
O1034     Cd1039   2.050       .  S
Cd1035     O1037   2.078       .  S
Cd1035     O1262   2.010   1_554  S
Cd1036     O1040   2.072       .  S
Cd1036     O1049   2.075       .  S
Cd1036     O1038   2.001       .  S
O1037      C1047   1.277       .  A
O1038     Cd1259   2.010       .  S
O1038     Cd1039   1.992       .  S
Cd1039     O1041   2.066       .  S
O1040      C1271   1.275       .  A
C1042      O1046   1.275       .  A
C1045      O1258   1.273   1_554  A
C1047      C1112   1.486       .  S
C1047      O1264   1.275   1_554  A
C1048      O1049   1.276       .  A
C1050      C1051   1.409       .  A
C1050      C1055   1.410       .  A
C1051      C1052   1.408       .  A
C1051      H1056   1.083       .  S
C1052      C1053   1.405       .  A
C1052      C1059   1.488       .  S
C1053      C1054   1.401       .  A
C1053      H1057   1.084       .  S
C1054      C1055   1.404       .  A
C1059      N1060   1.362       .  A
C1059      N1064   1.360       .  A
N1060      C1061   1.359       .  A
C1061      N1062   1.354       .  A
N1062      C1063   1.354       .  A
C1063      C1069   1.463       .  S
C1063      N1064   1.358       .  A
C1065      C1514   1.411       .  A
C1065      C1070   1.407       .  A
C1065      C1101   1.480       .  S
C1066      C1513   1.411       .  A
C1066      C1515   1.401       .  A
C1066      H1071   1.084       .  S
C1067      C1514   1.401       .  A
C1067      C1068   1.398       .  A
C1068      C1069   1.398       .  A
C1068      H1072   1.085       .  S
C1069      C1070   1.400       .  A
C1070      H1073   1.085       .  S
C1074      C1075   1.409       .  A
C1074      C1079   1.402       .  A
C1074      C1098   1.468       .  S
C1075      C1076   1.408       .  A
C1075      H1080   1.084       .  S
C1076      C1077   1.403       .  A
C1077      C1078   1.397       .  A
C1077      H1081   1.085       .  S
C1078      C1079   1.398       .  A
C1078      C1108   1.462       .  S
C1079      H1082   1.085       .  S
O1083      C1323   1.275       .  A
O1083     Zn1089   2.035       .  S
C1084      O1772   1.273   1_544  A
C1084      O1097   1.276       .  A
O1085      C1098   1.277       .  A
O1085     Cd1092   2.081       .  S
O1086      C1104   1.276       .  A
O1086     Cd1095   2.082       .  S
O1087      C1549   1.273       .  A
O1087     Cd1091   2.058       .  S
O1088      C1099   1.272       .  A
Zn1089     O1100   2.021       .  S
Zn1089     O1102   2.015       .  S
Zn1089     O1094   1.957       .  S
O1090      C1101   1.277       .  A
Cd1091     O1317   2.059   1_554  S
Cd1092     O1094   2.008       .  S
O1093      C1103   1.274       .  A
O1093     Cd1315   2.059       .  S
O1094     Cd1543   2.003       .  S
Cd1095     O1321   2.073       .  S
Cd1095     O1542   2.003   1_545  S
O1096      C1103   1.277       .  A
O1097     Cd1319   2.073   1_554  S
C1098      O1102   1.273       .  A
C1099      C1116   1.467       .  S
C1099      O1307   1.275   1_554  A
O1100      C1756   1.273       .  A
C1101      O1535   1.273   1_545  A
C1106      C1114   1.483       .  S
C1106      N1107   1.360       .  A
C1106      N1111   1.359       .  A
N1107      C1108   1.357       .  A
C1108      N1109   1.355       .  A
N1109      C1110   1.354       .  A
C1110      N1111   1.357       .  A
C1112      C1113   1.407       .  A
C1112      C1117   1.409       .  A
C1113      C1114   1.407       .  A
C1113      H1118   1.083       .  S
C1114      C1115   1.404       .  A
C1115      C1116   1.399       .  A
C1115      H1119   1.084       .  S
C1116      C1117   1.402       .  A
C1117      H1344   1.084   1_554  S
H1120      C1341   1.084       .  S
C1121      C1122   1.405       .  A
C1121      C1126   1.408       .  A
C1121      C1154   1.471       .  S
C1122      C1123   1.402       .  A
C1122      H1127   1.084       .  S
C1123      C1124   1.400       .  A
C1123      C1166   1.465       .  S
C1124      C1125   1.400       .  A
C1124      H1128   1.085       .  S
C1125      C1126   1.405       .  A
C1125      C1266   1.471       .  S
C1126      H1129   1.084       .  S
C1130      C1131   1.404       .  A
C1130      C1135   1.411       .  A
C1130      C1157   1.477       .  S
C1131      C1132   1.396       .  A
C1131      H1136   1.084       .  S
C1133      H1137   1.085       .  S
C1134      C1135   1.406       .  A
C1134      C1269   1.479       .  S
C1135      H1138   1.084       .  S
O1139      C1155   1.275       .  A
O1139     Zn1145   2.037       .  S
C1140      C1237   1.468       .  S
C1140      O1156   1.273       .  A
C1140      O1153   1.275       .  A
O1141      C1154   1.277       .  A
O1141     Cd1148   2.087       .  S
O1142      C1160   1.275       .  A
O1142     Cd1151   2.075       .  S
O1143      C1157   1.272       .  A
O1143     Cd1147   2.056       .  S
O1144      C1155   1.273       .  A
O1144     Cd1147   2.062       .  S
Zn1145     O1156   2.024       .  S
Zn1145     O1158   2.021       .  S
Zn1145     O1150   1.954       .  S
O1146      C1157   1.276       .  A
O1146     Cd1151   2.074       .  S
Cd1147     O1149   2.052       .  S
Cd1147     O1150   1.992       .  S
Cd1148     O1152   2.093       .  S
Cd1148     O1161   2.082       .  S
Cd1148     O1150   2.008       .  S
O1149      C1159   1.273       .  A
O1150     Cd1151   2.002       .  S
Cd1151     O1153   2.070       .  S
O1152      C1159   1.277       .  A
C1154      O1158   1.275       .  A
C1155      C1172   1.468       .  S
C1159      C1246   1.482       .  S
C1160      C1218   1.488       .  S
C1160      O1161   1.278       .  A
C1162      C1170   1.485       .  S
N1163      C1164   1.357       .  A
C1164      C1179   1.464       .  S
C1164      N1165   1.355       .  A
N1165      C1166   1.355       .  A
C1166      N1167   1.358       .  A
C1168      C1169   1.402       .  A
C1168      C1173   1.403       .  A
C1168      C1196   1.469       .  S
C1169      C1170   1.407       .  A
C1169      H1174   1.084       .  S
C1170      C1171   1.407       .  A
C1171      C1172   1.402       .  A
C1171      H1175   1.084       .  S
C1172      C1173   1.403       .  A
C1173      H1176   1.084       .  S
C1177      C1178   1.402       .  A
C1177      C1182   1.408       .  A
C1177      C1210   1.469       .  S
C1178      C1179   1.399       .  A
C1178      H1183   1.085       .  S
C1179      C1180   1.399       .  A
C1180      C1181   1.405       .  A
C1180      H1184   1.084       .  S
C1181      C1182   1.408       .  A
C1181      C1327   1.483       .  S
C1182      H1185   1.084       .  S
C1186      C1187   1.407       .  A
C1186      C1639   1.412       .  A
C1186      C1213   1.481       .  S
C1187      C1188   1.399       .  A
C1187      H1192   1.085       .  S
C1189      H1193   1.085       .  S
C1190      C1639   1.403       .  A
C1190      C1308   1.469       .  S
C1191      C1634   1.412       .  A
C1191      C1638   1.403       .  A
C1191      H1194   1.084       .  S
O1195      C1659   1.273       .  A
O1195     Zn1201   2.023       .  S
C1196      O1212   1.275       .  A
C1196      O1209   1.273       .  A
O1197      C1210   1.276       .  A
O1197     Cd1204   2.082       .  S
O1198      C1216   1.274       .  A
O1198     Cd1207   2.056       .  S
O1199      C1213   1.277       .  A
O1199     Cd1203   2.081       .  S
O1200      C1211   1.275       .  A
O1200     Cd1203   2.068       .  S
Zn1201     O1212   2.036       .  S
Zn1201     O1214   2.016       .  S
Zn1201     O1206   1.956       .  S
O1202      C1661   1.273       .  A
O1202     Cd1207   2.061       .  S
Cd1203     O1205   2.076       .  S
Cd1203     O1654   2.001   1_545  S
Cd1204     O1656   2.079       .  S
Cd1204     O1217   2.089       .  S
Cd1204     O1206   2.009       .  S
O1205      C1215   1.275       .  A
O1206     Cd1651   2.001       .  S
O1206     Cd1207   1.992       .  S
Cd1207     O1209   2.067       .  S
O1208      C1215   1.277       .  A
O1208     Cd1652   2.079   1_545  S
C1210      O1214   1.273       .  A
C1211      C1291   1.468       .  S
C1211      O1643   1.273   1_545  A
C1213      O1650   1.273   1_545  A
C1215      C1222   1.488       .  S
C1216      C1300   1.482       .  S
C1216      O1217   1.276       .  A
C1218      C1219   1.404       .  A
C1218      C1223   1.410       .  A
C1219      C1220   1.405       .  A
C1219      H1224   1.083       .  S
C1220      C1221   1.405       .  A
C1220      C1227   1.484       .  S
C1221      C1222   1.406       .  A
C1221      H1225   1.083       .  S
C1222      C1223   1.410       .  A
C1223      H1226   1.083       .  S
C1227      N1228   1.360       .  A
C1227      N1232   1.360       .  A
N1228      C1229   1.356       .  A
C1231      N1232   1.358       .  A
C1233      C1234   1.405       .  A
C1233      C1238   1.407       .  A
C1233      C1267   1.471       .  S
C1234      C1235   1.402       .  A
C1234      H1239   1.084       .  S
C1235      C1236   1.398       .  A
C1235      C1285   1.464       .  S
C1236      C1237   1.398       .  A
C1236      H1240   1.085       .  S
C1237      C1238   1.403       .  A
C1238      H1241   1.084       .  S
C1242      C1243   1.405       .  A
C1242      C1247   1.411       .  A
C1242      C1272   1.478       .  S
C1243      C1244   1.397       .  A
C1243      H1248   1.084       .  S
C1244      C1245   1.398       .  A
C1244      C1334   1.463       .  S
C1245      C1246   1.404       .  A
C1245      H1249   1.085       .  S
C1246      C1247   1.406       .  A
C1247      H1250   1.084       .  S
O1251      C1267   1.275       .  A
C1252      O1265   1.273       .  A
O1253      C1266   1.276       .  A
O1254      C1272   1.273       .  A
O1254     Cd1263   2.057       .  S
O1255      C1269   1.276       .  A
O1255     Cd1259   2.084       .  S
O1256     Cd1259   2.084       .  S
Zn1257     O1268   2.043       .  S
Zn1257     O1270   2.030       .  S
O1258     Cd1263   2.050       .  S
Cd1259     O1261   2.078       .  S
Cd1260     O1264   2.072       .  S
Cd1260     O1273   2.075       .  S
Cd1260     O1262   2.001       .  S
O1261      C1271   1.277       .  A
O1262     Cd1263   1.992       .  S
Cd1263     O1265   2.066       .  S
C1266      O1270   1.275       .  A
C1271      C1336   1.486       .  S
C1272      O1273   1.276       .  A
C1274      C1275   1.409       .  A
C1274      C1279   1.410       .  A
C1275      C1276   1.408       .  A
C1275      H1280   1.083       .  S
C1276      C1277   1.405       .  A
C1276      C1283   1.488       .  S
C1277      C1278   1.401       .  A
C1277      H1281   1.084       .  S
C1278      C1279   1.404       .  A
C1283      N1284   1.362       .  A
C1283      N1288   1.360       .  A
N1284      C1285   1.359       .  A
C1285      N1286   1.354       .  A
N1286      C1287   1.354       .  A
C1287      C1293   1.463       .  S
C1287      N1288   1.358       .  A
C1289      C1738   1.411       .  A
C1289      C1294   1.407       .  A
C1289      C1325   1.480       .  S
C1290      C1737   1.411       .  A
C1290      C1739   1.401       .  A
C1290      H1295   1.084       .  S
C1291      C1738   1.401       .  A
C1291      C1292   1.398       .  A
C1292      C1293   1.398       .  A
C1292      H1296   1.085       .  S
C1293      C1294   1.400       .  A
C1294      H1297   1.085       .  S
C1298      C1299   1.409       .  A
C1298      C1303   1.402       .  A
C1298      C1322   1.468       .  S
C1299      C1300   1.408       .  A
C1299      H1304   1.084       .  S
C1300      C1301   1.403       .  A
C1301      C1302   1.397       .  A
C1301      H1305   1.085       .  S
C1302      C1303   1.398       .  A
C1302      C1332   1.462       .  S
C1303      H1306   1.085       .  S
O1307     Zn1313   2.035       .  S
C1308      O1548   1.273   1_545  A
C1308      O1321   1.276       .  A
O1309      C1322   1.277       .  A
O1309     Cd1316   2.081       .  S
O1310      C1328   1.276       .  A
O1310     Cd1319   2.082       .  S
O1311      C1773   1.273       .  A
O1311     Cd1315   2.058       .  S
O1312      C1323   1.272       .  A
Zn1313     O1324   2.021       .  S
Zn1313     O1326   2.015       .  S
Zn1313     O1318   1.957       .  S
O1314      C1325   1.277       .  A
Cd1316     O1318   2.008       .  S
O1317      C1327   1.274       .  A
O1318     Cd1767   2.003       .  S
Cd1319     O1766   2.003   1_545  S
O1320      C1327   1.277       .  A
C1322      O1326   1.273       .  A
C1323      C1340   1.467       .  S
O1324      C1532   1.273   1_556  A
C1325      O1759   1.273   1_545  A
C1330      C1338   1.483       .  S
C1330      N1331   1.360       .  A
C1330      N1335   1.359       .  A
N1331      C1332   1.357       .  A
C1332      N1333   1.355       .  A
N1333      C1334   1.354       .  A
C1334      N1335   1.357       .  A
C1336      C1337   1.407       .  A
C1336      C1341   1.409       .  A
C1337      C1338   1.407       .  A
C1337      H1342   1.083       .  S
C1338      C1339   1.404       .  A
C1339      C1340   1.399       .  A
C1339      H1343   1.084       .  S
C1340      C1341   1.402       .  A
C1345      C1346   1.405       .  A
C1345      C1350   1.408       .  A
C1345      C1378   1.471       .  S
C1346      C1347   1.402       .  A
C1346      H1351   1.084       .  S
C1347      C1348   1.400       .  A
C1347      C1390   1.465       .  S
C1348      C1349   1.400       .  A
C1348      H1352   1.085       .  S
C1349      C1350   1.405       .  A
C1349      C1490   1.471       .  S
C1350      H1353   1.084       .  S
C1354      C1355   1.404       .  A
C1354      C1359   1.411       .  A
C1354      C1381   1.477       .  S
C1355      C1356   1.396       .  A
C1355      H1360   1.084       .  S
C1356      C1581   1.396   1_554  A
C1356      C1677   1.458   1_554  S
C1357      C1580   1.396       .  A
C1357      C1582   1.402       .  A
C1357      H1361   1.085       .  S
C1358      C1581   1.402   1_554  A
C1358      C1359   1.406       .  A
C1358      C1493   1.479       .  S
C1359      H1362   1.084       .  S
O1363      C1379   1.275       .  A
O1363     Zn1369   2.037       .  S
C1364      C1461   1.468       .  S
C1364      O1380   1.273       .  A
C1364      O1377   1.275       .  A
O1365      C1378   1.277       .  A
O1365     Cd1372   2.087       .  S
O1366      C1384   1.275       .  A
O1366     Cd1375   2.075       .  S
O1367      C1381   1.272       .  A
O1367     Cd1371   2.056       .  S
O1368      C1379   1.273       .  A
O1368     Cd1371   2.062       .  S
Zn1369     O1380   2.024       .  S
Zn1369     O1382   2.021       .  S
Zn1369     O1374   1.954       .  S
O1370      C1381   1.276       .  A
O1370     Cd1375   2.074       .  S
Cd1371     O1373   2.052       .  S
Cd1371     O1374   1.992       .  S
Cd1372     O1376   2.093       .  S
Cd1372     O1385   2.082       .  S
Cd1372     O1374   2.008       .  S
O1373      C1383   1.273       .  A
O1374     Cd1375   2.002       .  S
Cd1375     O1377   2.070       .  S
O1376      C1383   1.277       .  A
C1378      O1382   1.275       .  A
C1379      C1396   1.468       .  S
C1383      C1470   1.482       .  S
C1384      C1442   1.488       .  S
C1384      O1385   1.278       .  A
C1386      C1394   1.485       .  S
C1386      N1611   1.360   1_554  A
C1386      N1615   1.361   1_554  A
N1387      C1610   1.360       .  A
N1387      C1388   1.357       .  A
C1388      C1403   1.464       .  S
C1388      N1389   1.355       .  A
N1389      C1390   1.355       .  A
C1390      N1391   1.358       .  A
N1391      C1610   1.361       .  A
C1392      C1393   1.402       .  A
C1392      C1397   1.403       .  A
C1392      C1420   1.469       .  S
C1393      C1394   1.407       .  A
C1393      H1398   1.084       .  S
C1394      C1395   1.407       .  A
C1395      C1396   1.402       .  A
C1395      H1399   1.084       .  S
C1396      C1397   1.403       .  A
C1397      H1400   1.084       .  S
C1401      C1402   1.402       .  A
C1401      C1406   1.408       .  A
C1401      C1434   1.469       .  S
C1402      C1403   1.399       .  A
C1402      H1407   1.085       .  S
C1403      C1404   1.399       .  A
C1404      C1405   1.405       .  A
C1404      H1408   1.084       .  S
C1405      C1406   1.408       .  A
C1405      C1551   1.483       .  S
C1406      H1409   1.084       .  S
C1410      C1411   1.407       .  A
C1410      C1437   1.481       .  S
C1411      C1412   1.399       .  A
C1411      H1416   1.085       .  S
C1412      C1637   1.397   1_554  A
C1412      C1679   1.460   1_554  S
C1413      C1636   1.397       .  A
C1413      C1638   1.397       .  A
C1413      H1417   1.085       .  S
C1414      C1637   1.397   1_554  A
C1414      C1532   1.469       .  S
C1415      H1418   1.084   1_545  S
O1419     Zn1425   2.023       .  S
C1420      O1436   1.275       .  A
C1420      O1433   1.273       .  A
O1421      C1434   1.277       .  A
O1421     Cd1428   2.082       .  S
O1422      C1440   1.274       .  A
O1422     Cd1431   2.056       .  S
O1423      C1437   1.277       .  A
O1423     Cd1427   2.081       .  S
O1424      C1435   1.275       .  A
O1424     Cd1427   2.068       .  S
Zn1425     O1436   2.036       .  S
Zn1425     O1438   2.016       .  S
Zn1425     O1430   1.956       .  S
O1426     Cd1431   2.061       .  S
Cd1427     O1429   2.076       .  S
Cd1428     O1441   2.089       .  S
Cd1428     O1430   2.009       .  S
O1429      C1439   1.275       .  A
O1430     Cd1431   1.992       .  S
Cd1431     O1433   2.067       .  S
O1432      C1439   1.277       .  A
C1434      O1438   1.273       .  A
C1435      C1515   1.468       .  S
C1439      C1446   1.488       .  S
C1440      C1524   1.482       .  S
C1440      O1441   1.276       .  A
C1442      C1443   1.404       .  A
C1442      C1447   1.410       .  A
C1443      C1444   1.405       .  A
C1443      H1448   1.083       .  S
C1444      C1445   1.405       .  A
C1444      C1451   1.484       .  S
C1445      C1446   1.406       .  A
C1445      H1449   1.083       .  S
C1446      C1447   1.410       .  A
C1447      H1450   1.083       .  S
C1451      N1452   1.360       .  A
C1451      N1456   1.360       .  A
N1452      C1453   1.356       .  A
C1453      C1580   1.458       .  S
C1453      N1678   1.353       .  A
N1454      C1677   1.353   1_554  A
N1454      C1679   1.353   1_554  A
C1455      C1636   1.460       .  S
C1455      N1678   1.353       .  A
C1455      N1456   1.358       .  A
C1457      C1458   1.405       .  A
C1457      C1462   1.407       .  A
C1457      C1491   1.471       .  S
C1458      C1459   1.402       .  A
C1458      H1463   1.085       .  S
C1459      C1460   1.398       .  A
C1459      C1509   1.464       .  S
C1460      C1461   1.398       .  A
C1460      H1464   1.085       .  S
C1461      C1462   1.403       .  A
C1462      H1465   1.084       .  S
C1466      C1467   1.405       .  A
C1466      C1471   1.411       .  A
C1466      C1496   1.478       .  S
C1467      C1468   1.397       .  A
C1467      H1472   1.084       .  S
C1468      C1469   1.398       .  A
C1468      C1558   1.463       .  S
C1469      C1470   1.404       .  A
C1469      H1473   1.085       .  S
C1470      C1471   1.406       .  A
C1471      H1474   1.084       .  S
O1475      C1491   1.275       .  A
O1475     Zn1705   2.023   1_554  S
C1476      O1489   1.273       .  A
O1477      C1490   1.276       .  A
O1478      C1496   1.273       .  A
O1478     Cd1487   2.057       .  S
O1479      C1493   1.276       .  A
O1479     Cd1483   2.084       .  S
O1480     Cd1483   2.084       .  S
Zn1481     O1699   2.023       .  S
Zn1481     O1492   2.043       .  S
Zn1481     O1494   2.030       .  S
O1482      C1717   1.273       .  A
O1482     Cd1487   2.050       .  S
Cd1483     O1485   2.078       .  S
Cd1483     O1710   2.010   1_554  S
Cd1484     O1488   2.072       .  S
Cd1484     O1497   2.075       .  S
Cd1484     O1486   2.001       .  S
O1485      C1495   1.277       .  A
O1486     Cd1707   2.010       .  S
O1486     Cd1487   1.992       .  S
Cd1487     O1489   2.066       .  S
O1488      C1719   1.275       .  A
C1490      O1494   1.275       .  A
C1493      O1706   1.273   1_554  A
C1495      C1560   1.486       .  S
C1495      O1712   1.275   1_554  A
C1496      O1497   1.276       .  A
C1498      C1499   1.409       .  A
C1498      C1503   1.410       .  A
C1499      C1500   1.408       .  A
C1499      H1504   1.083       .  S
C1500      C1501   1.405       .  A
C1500      C1507   1.488       .  S
C1501      C1502   1.401       .  A
C1501      H1505   1.084       .  S
C1502      C1503   1.404       .  A
C1507      N1508   1.362       .  A
C1507      N1512   1.360       .  A
N1508      C1509   1.359       .  A
C1509      N1510   1.354       .  A
N1510      C1511   1.354       .  A
C1511      C1517   1.463       .  S
C1511      N1512   1.358       .  A
C1513      C1518   1.407       .  A
C1513      C1549   1.480       .  S
C1514      H1519   1.084   1_545  S
C1515      C1516   1.398       .  A
C1516      C1517   1.398       .  A
C1516      H1520   1.085       .  S
C1517      C1518   1.400       .  A
C1518      H1521   1.085       .  S
C1522      C1523   1.409       .  A
C1522      C1527   1.402       .  A
C1522      C1546   1.468       .  S
C1523      C1524   1.408       .  A
C1523      H1528   1.084       .  S
C1524      C1525   1.403       .  A
C1525      C1526   1.397       .  A
C1525      H1529   1.085       .  S
C1526      C1527   1.398       .  A
C1526      C1556   1.462       .  S
C1527      H1530   1.085       .  S
O1531      C1771   1.275       .  A
O1531     Zn1537   2.035       .  S
C1532      O1545   1.276       .  A
O1533      C1546   1.277       .  A
O1533     Cd1540   2.081       .  S
O1534      C1552   1.276       .  A
O1534     Cd1543   2.082       .  S
O1535     Cd1539   2.058       .  S
O1536      C1547   1.272       .  A
Zn1537     O1548   2.021       .  S
Zn1537     O1550   2.015       .  S
Zn1537     O1542   1.957       .  S
O1538      C1549   1.277       .  A
Cd1539     O1765   2.059   1_554  S
Cd1540     O1542   2.008       .  S
O1541      C1551   1.274       .  A
O1541     Cd1763   2.059       .  S
Cd1543     O1769   2.073       .  S
O1544      C1551   1.277       .  A
O1545     Cd1767   2.073   1_554  S
C1546      O1550   1.273       .  A
C1547      C1564   1.467       .  S
C1547      O1755   1.275   1_554  A
C1554      C1562   1.483       .  S
C1554      N1555   1.360       .  A
C1554      N1559   1.359       .  A
N1555      C1556   1.357       .  A
C1556      N1557   1.355       .  A
N1557      C1558   1.354       .  A
C1558      N1559   1.357       .  A
C1560      C1561   1.407       .  A
C1560      C1565   1.409       .  A
C1561      C1562   1.407       .  A
C1561      H1566   1.083       .  S
C1562      C1563   1.404       .  A
C1563      C1564   1.399       .  A
C1563      H1567   1.084       .  S
C1564      C1565   1.402       .  A
C1565      H1792   1.084   1_554  S
H1568      C1789   1.084       .  S
C1569      C1570   1.405       .  A
C1569      C1574   1.408       .  A
C1569      C1602   1.471       .  S
C1570      C1571   1.402       .  A
C1570      H1575   1.084       .  S
C1571      C1572   1.400       .  A
C1571      C1614   1.465       .  S
C1572      C1573   1.400       .  A
C1572      H1576   1.085       .  S
C1573      C1574   1.405       .  A
C1573      C1714   1.471       .  S
C1574      H1577   1.084       .  S
C1578      C1579   1.404       .  A
C1578      C1583   1.411       .  A
C1578      C1605   1.477       .  S
C1579      C1580   1.396       .  A
C1579      H1584   1.084       .  S
C1581      H1585   1.085       .  S
C1582      C1583   1.406       .  A
C1582      C1717   1.479       .  S
C1583      H1586   1.084       .  S
O1587      C1603   1.275       .  A
O1587     Zn1593   2.037       .  S
C1588      C1685   1.468       .  S
C1588      O1604   1.273       .  A
C1588      O1601   1.275       .  A
O1589      C1602   1.277       .  A
O1589     Cd1596   2.087       .  S
O1590      C1608   1.275       .  A
O1590     Cd1599   2.075       .  S
O1591      C1605   1.272       .  A
O1591     Cd1595   2.056       .  S
O1592      C1603   1.273       .  A
O1592     Cd1595   2.062       .  S
Zn1593     O1604   2.024       .  S
Zn1593     O1606   2.021       .  S
Zn1593     O1598   1.954       .  S
O1594      C1605   1.276       .  A
O1594     Cd1599   2.074       .  S
Cd1595     O1597   2.052       .  S
Cd1595     O1598   1.992       .  S
Cd1596     O1600   2.093       .  S
Cd1596     O1609   2.082       .  S
Cd1596     O1598   2.008       .  S
O1597      C1607   1.273       .  A
O1598     Cd1599   2.002       .  S
Cd1599     O1601   2.070       .  S
O1600      C1607   1.277       .  A
C1602      O1606   1.275       .  A
C1603      C1620   1.468       .  S
C1607      C1694   1.482       .  S
C1608      C1666   1.488       .  S
C1608      O1609   1.278       .  A
C1610      C1618   1.485       .  S
N1611      C1612   1.357       .  A
C1612      C1627   1.464       .  S
C1612      N1613   1.355       .  A
N1613      C1614   1.355       .  A
C1614      N1615   1.358       .  A
C1616      C1617   1.402       .  A
C1616      C1621   1.403       .  A
C1616      C1644   1.469       .  S
C1617      C1618   1.407       .  A
C1617      H1622   1.084       .  S
C1618      C1619   1.407       .  A
C1619      C1620   1.402       .  A
C1619      H1623   1.084       .  S
C1620      C1621   1.403       .  A
C1621      H1624   1.084       .  S
C1625      C1626   1.402       .  A
C1625      C1630   1.408       .  A
C1625      C1658   1.469       .  S
C1626      C1627   1.399       .  A
C1626      H1631   1.085       .  S
C1627      C1628   1.399       .  A
C1628      C1629   1.405       .  A
C1628      H1632   1.084       .  S
C1629      C1630   1.408       .  A
C1629      C1775   1.483       .  S
C1630      H1633   1.084       .  S
C1634      C1635   1.407       .  A
C1634      C1661   1.481       .  S
C1635      C1636   1.399       .  A
C1635      H1640   1.085       .  S
C1637      H1641   1.085       .  S
C1638      C1756   1.469       .  S
C1639      H1642   1.084   1_545  S
O1643     Zn1649   2.023       .  S
C1644      O1660   1.275       .  A
C1644      O1657   1.273       .  A
O1645      C1658   1.276       .  A
O1645     Cd1652   2.082       .  S
O1646      C1664   1.274       .  A
O1646     Cd1655   2.056       .  S
O1647      C1661   1.277       .  A
O1647     Cd1651   2.081       .  S
O1648      C1659   1.275       .  A
O1648     Cd1651   2.068       .  S
Zn1649     O1660   2.036       .  S
Zn1649     O1662   2.016       .  S
Zn1649     O1654   1.956       .  S
O1650     Cd1655   2.061       .  S
Cd1651     O1653   2.076       .  S
Cd1652     O1665   2.089       .  S
Cd1652     O1654   2.009       .  S
O1653      C1663   1.275       .  A
O1654     Cd1655   1.992       .  S
Cd1655     O1657   2.067       .  S
O1656      C1663   1.277       .  A
C1658      O1662   1.273       .  A
C1659      C1739   1.468       .  S
C1663      C1670   1.488       .  S
C1664      C1748   1.482       .  S
C1664      O1665   1.276       .  A
C1666      C1667   1.404       .  A
C1666      C1671   1.410       .  A
C1667      C1668   1.405       .  A
C1667      H1672   1.083       .  S
C1668      C1669   1.405       .  A
C1668      C1675   1.484       .  S
C1669      C1670   1.406       .  A
C1669      H1673   1.083       .  S
C1670      C1671   1.410       .  A
C1671      H1674   1.083       .  S
C1675      N1676   1.360       .  A
C1675      N1680   1.360       .  A
N1676      C1677   1.356       .  A
C1679      N1680   1.358       .  A
C1681      C1682   1.405       .  A
C1681      C1686   1.407       .  A
C1681      C1715   1.471       .  S
C1682      C1683   1.402       .  A
C1682      H1687   1.085       .  S
C1683      C1684   1.398       .  A
C1683      C1733   1.464       .  S
C1684      C1685   1.398       .  A
C1684      H1688   1.085       .  S
C1685      C1686   1.403       .  A
C1686      H1689   1.084       .  S
C1690      C1691   1.405       .  A
C1690      C1695   1.411       .  A
C1690      C1720   1.478       .  S
C1691      C1692   1.397       .  A
C1691      H1696   1.084       .  S
C1692      C1693   1.398       .  A
C1692      C1782   1.463       .  S
C1693      C1694   1.404       .  A
C1693      H1697   1.085       .  S
C1694      C1695   1.406       .  A
C1695      H1698   1.084       .  S
O1699      C1715   1.275       .  A
C1700      O1713   1.273       .  A
O1701      C1714   1.276       .  A
O1702      C1720   1.273       .  A
O1702     Cd1711   2.057       .  S
O1703      C1717   1.276       .  A
O1703     Cd1707   2.084       .  S
O1704     Cd1707   2.084       .  S
Zn1705     O1716   2.043       .  S
Zn1705     O1718   2.030       .  S
O1706     Cd1711   2.050       .  S
Cd1707     O1709   2.078       .  S
Cd1708     O1712   2.072       .  S
Cd1708     O1721   2.075       .  S
Cd1708     O1710   2.001       .  S
O1709      C1719   1.277       .  A
O1710     Cd1711   1.992       .  S
Cd1711     O1713   2.066       .  S
C1714      O1718   1.275       .  A
C1719      C1784   1.486       .  S
C1720      O1721   1.276       .  A
C1722      C1723   1.409       .  A
C1722      C1727   1.410       .  A
C1723      C1724   1.408       .  A
C1723      H1728   1.083       .  S
C1724      C1725   1.405       .  A
C1724      C1731   1.488       .  S
C1725      C1726   1.401       .  A
C1725      H1729   1.084       .  S
C1726      C1727   1.404       .  A
C1731      N1732   1.362       .  A
C1731      N1736   1.360       .  A
N1732      C1733   1.359       .  A
C1733      N1734   1.354       .  A
N1734      C1735   1.354       .  A
C1735      C1741   1.463       .  S
C1735      N1736   1.358       .  A
C1737      C1742   1.407       .  A
C1737      C1773   1.480       .  S
C1738      H1743   1.084   1_545  S
C1739      C1740   1.398       .  A
C1740      C1741   1.398       .  A
C1740      H1744   1.085       .  S
C1741      C1742   1.400       .  A
C1742      H1745   1.085       .  S
C1746      C1747   1.409       .  A
C1746      C1751   1.402       .  A
C1746      C1770   1.468       .  S
C1747      C1748   1.408       .  A
C1747      H1752   1.084       .  S
C1748      C1749   1.403       .  A
C1749      C1750   1.397       .  A
C1749      H1753   1.085       .  S
C1750      C1751   1.398       .  A
C1750      C1780   1.462       .  S
C1751      H1754   1.085       .  S
O1755     Zn1761   2.035       .  S
C1756      O1769   1.276       .  A
O1757      C1770   1.277       .  A
O1757     Cd1764   2.081       .  S
O1758      C1776   1.276       .  A
O1758     Cd1767   2.082       .  S
O1759     Cd1763   2.058       .  S
O1760      C1771   1.272       .  A
Zn1761     O1772   2.021       .  S
Zn1761     O1774   2.015       .  S
Zn1761     O1766   1.957       .  S
O1762      C1773   1.277       .  A
Cd1764     O1766   2.008       .  S
O1765      C1775   1.274       .  A
O1768      C1775   1.277       .  A
C1770      O1774   1.273       .  A
C1771      C1788   1.467       .  S
C1778      C1786   1.483       .  S
C1778      N1779   1.360       .  A
C1778      N1783   1.359       .  A
N1779      C1780   1.357       .  A
C1780      N1781   1.355       .  A
N1781      C1782   1.354       .  A
C1782      N1783   1.357       .  A
C1784      C1785   1.407       .  A
C1784      C1789   1.409       .  A
C1785      C1786   1.407       .  A
C1785      H1790   1.083       .  S
C1786      C1787   1.404       .  A
C1787      C1788   1.399       .  A
C1787      H1791   1.084       .  S
C1788      C1789   1.402       .  A
