geometry optimzed in LAMMPS
_audit_creation_date              2020-11-30 
_audit_creation_method            'lammps2cif' 
_symmetry_space_group_name_H-M    'P1' 
_symmetry_Int_Tables_number       1 
_symmetry_cell_setting            triclinic 
loop_ 
_symmetry_equiv_pos_as_xyz 
  x,y,z 
_cell_length_a                    41.06872094 
_cell_length_b                    40.993734366102174 
_cell_length_c                    41.157391204614484 
_cell_angle_alpha                 90.19810424702365 
_cell_angle_beta                  90.14428669650344 
_cell_angle_gamma                 89.65982900446626 
loop_ 
_atom_site_label 
_atom_site_type_symbol 
_atom_site_fract_x 
_atom_site_fract_y 
_atom_site_fract_z 
_atom_site_charge 
C1          C  0.55150463  0.27370037  0.10594604     0.80100
N2          N  0.54182803  0.27502836  0.07438407    -0.78200
C3          C  0.50984703  0.27811471  0.06631903     0.82500
N4          N  0.48727066  0.28013368  0.09040402    -0.78200
C5          C  0.49658231  0.27859890  0.12210559     0.82600
N6          N  0.52864255  0.27516897  0.12973116    -0.79900
C7          C  0.44649979  0.21166881  0.27588158     0.80100
N8          N  0.44699228  0.23617757  0.25367145    -0.78200
C9          C  0.44925479  0.22915527  0.22141520     0.82500
N10         N  0.45066996  0.19758769  0.21136298    -0.78200
C11         C  0.44962879  0.17294362  0.23326633     0.82600
N12         N  0.44765017  0.18025581  0.26538337    -0.79900
C13         C  0.38158210  0.38337258  0.17083974     0.80100
N14         N  0.34999258  0.37400734  0.17291486    -0.78200
C15         C  0.34195764  0.34202179  0.17539945     0.82500
N16         N  0.36609197  0.31915543  0.17593998    -0.78200
C17         C  0.39779751  0.32819213  0.17342916     0.82600
N18         N  0.40542148  0.36025895  0.17078924    -0.79900
C19         C  0.42379349  0.30335100  0.17322666     0.03000
C20         C  0.44742228  0.30322348  0.14857935    -0.13200
C21         C  0.47200825  0.27928142  0.14813465     0.00500
C22         C  0.47283393  0.25547161  0.17252345    -0.11700
C23         C  0.44931379  0.25540096  0.19717352     0.03000
C24         C  0.42487829  0.27942034  0.19748740    -0.11100
H25         H  0.44657473  0.32159904  0.12971243     0.08600
H26         H  0.49154451  0.23670194  0.17208464     0.06100
H27         H  0.40648915  0.27924635  0.21634128     0.05900
O28         O  0.93899082  0.73624051  0.57006886    -0.78600
C29         C  0.01481180  0.75059669  0.64355436     0.82400
O30         O  0.91115380  0.66925077  0.66352828    -0.79700
O31         O  0.94476600  0.76542094  0.72434169    -0.81200
O32         O  0.89992659  0.82514951  0.63451894    -0.81000
O33         O  0.89752941  0.77119900  0.57424599    -0.79700
Zn34       Zn  0.95063726  0.72412172  0.61636390     1.55700
O35         O  0.94232388  0.82469711  0.66842876    -0.81100
Cd36       Cd  0.89174415  0.77649507  0.62387192     1.59700
Cd37       Cd  0.89917534  0.71694110  0.67511543     1.59600
O38         O  0.84389447  0.76507012  0.63567242    -0.81000
O39         O  0.92376905  0.74804909  0.64731447    -1.91600
Cd40       Cd  0.95215721  0.77569089  0.67567903     1.59900
O41         O  0.84953881  0.72270613  0.66898691    -0.81000
O42         O  0.00090576  0.76783395  0.66536702    -0.79700
C43         C  0.92951003  0.65731560  0.64150918     0.82900
C44         C  0.91763672  0.75481191  0.55706709     0.82500
O45         O  0.99837565  0.73353069  0.62349493    -0.78600
C46         C  0.92095098  0.84005523  0.65184030     0.83300
O47         O  0.94506701  0.67556354  0.62198257    -0.78700
C48         C  0.83165261  0.74283099  0.65341736     0.83500
C49         C  0.92715817  0.74474686  0.73917188     0.83800
O50         O  0.90900055  0.72476926  0.72384269    -0.81100
C51         C  0.42351160  0.81611324  0.77586897     0.80100
N52         N  0.42285661  0.79188728  0.75317402    -0.78200
C53         C  0.42043411  0.79929005  0.72102227     0.82500
N54         N  0.41916537  0.83100523  0.71156671    -0.78200
C55         C  0.42045180  0.85537884  0.73396782     0.82600
N56         N  0.42249060  0.84764120  0.76593819    -0.79900
C57         C  0.49091066  0.64661994  0.66944233     0.80100
N58         N  0.52228118  0.65669880  0.67078219    -0.78200
C59         C  0.52977428  0.68882051  0.67284010     0.82500
N60         N  0.50525994  0.71124488  0.67379512    -0.78200
C61         C  0.47368438  0.70151312  0.67210541     0.82600
N62         N  0.46659705  0.66923771  0.66978179    -0.79900
C63         C  0.32045410  0.75098257  0.60179785     0.80100
N64         N  0.33101852  0.74921448  0.57057122    -0.78200
C65         C  0.36332011  0.74737742  0.56362680     0.82500
N66         N  0.38523136  0.74715735  0.58846198    -0.78200
C67         C  0.37502355  0.74927199  0.61980864     0.82600
N68         N  0.34266210  0.75125935  0.62635949    -0.79900
C69         C  0.42076086  0.77325393  0.69628261     0.03000
C70         C  0.44558398  0.74961144  0.69660301    -0.13200
C71         C  0.44726427  0.72584624  0.67207911     0.00500
C72         C  0.42392795  0.72571423  0.64713863    -0.11700
C73         C  0.39897241  0.74921699  0.64654357     0.03000
C74         C  0.39743210  0.77293218  0.67123374    -0.11100
H75         H  0.46384672  0.74997003  0.71566847     0.08600
H76         H  0.42533297  0.70745334  0.62806433     0.06100
H77         H  0.37841872  0.79138235  0.67070262     0.05900
O78         O  0.43365955  0.23680015  0.75152892    -0.78600
C79         C  0.35863647  0.25534896  0.67741614     0.82400
O80         O  0.46040082  0.16883174  0.65767473    -0.79700
O81         O  0.42810024  0.26679628  0.59673532    -0.81200
O82         O  0.47559377  0.32427024  0.68784390    -0.81000
O83         O  0.47619678  0.26983777  0.74694660    -0.79700
Zn84       Zn  0.42155377  0.22525833  0.70476478     1.55700
O85         O  0.43419060  0.32614207  0.65286148    -0.81100
Cd86       Cd  0.48181235  0.27514012  0.69749273     1.59700
Cd87       Cd  0.47245532  0.21615906  0.64537314     1.59600
O88         O  0.52897123  0.26201804  0.68495167    -0.81000
O89         O  0.44904938  0.24819990  0.67377331    -1.91600
Cd90       Cd  0.42217226  0.27767975  0.64562646     1.59900
O91         O  0.52243430  0.22137725  0.64950641    -0.81000
O92         O  0.37348453  0.27256353  0.65648769    -0.79700
C93         C  0.44179966  0.15752323  0.67963660     0.82900
C94         C  0.45581690  0.25443066  0.76434115     0.82500
O95         O  0.37403761  0.23674240  0.69703336    -0.78600
C96         C  0.45572036  0.34033050  0.67013533     0.83300
O97         O  0.42626397  0.17634743  0.69896883    -0.78700
C98         C  0.54072440  0.24051410  0.66574221     0.83500
C99         C  0.44373409  0.24438479  0.58177530     0.83800
O100        O  0.46079878  0.22326940  0.59697443    -0.81100
C101        C  0.05383009  0.25479276  0.71513294     0.80100
N102        N  0.03080002  0.25366950  0.69137826    -0.78200
C103        C  0.99884283  0.25038009  0.69913684     0.82500
N104        N  0.98986178  0.24853440  0.73085297    -0.78200
C105        C  0.01262236  0.25007687  0.75484682     0.82600
N106        N  0.04448418  0.25308432  0.74671778    -0.79900
C107        C  0.94391342  0.31499202  0.54513763     0.80100
N108        N  0.94515969  0.34660225  0.55497672    -0.78200
C109        C  0.94789813  0.35457972  0.58688046     0.82500
N110        N  0.94972908  0.33039488  0.60928158    -0.78200
C111        C  0.94833608  0.29862013  0.59990837     0.82600
N112        N  0.94520155  0.29095061  0.56784616    -0.79900
C113        C  0.88364163  0.14562368  0.65545996     0.80100
N114        N  0.90729002  0.16862203  0.65441889    -0.78200
C115        C  0.89933055  0.20065760  0.65115133     0.82500
N116        N  0.86750749  0.20980675  0.64921056    -0.78200
C117        C  0.84360478  0.18707543  0.65093259     0.82600
N118        N  0.85195849  0.15512913  0.65390564    -0.79900
C119        C  0.94944153  0.27281318  0.62464752     0.03000
C120        C  0.92515783  0.24892633  0.62542272    -0.13200
C121        C  0.92511432  0.22533243  0.65002413     0.00500
C122        C  0.94956150  0.22564851  0.67389068    -0.11700
C123        C  0.97393558  0.24945575  0.67335654     0.03000
C124        C  0.97383283  0.27294524  0.64862117    -0.11100
H125        H  0.90609614  0.24893788  0.60714839     0.08600
H126        H  0.94943521  0.20756049  0.69304990     0.06100
H127        H  0.99240240  0.29163022  0.64831904     0.05900
O128        O  0.93344476  0.28404921  0.06914952    -0.78600
C129        C  0.85731137  0.27004951  0.14410120     0.82400
O130        O  0.95815191  0.35412121  0.16239081    -0.79700
O131        O  0.92836995  0.25777254  0.22459936    -0.81200
O132        O  0.97528896  0.19831555  0.13638319    -0.81000
O133        O  0.97622845  0.25097196  0.07501523    -0.79700
Zn134      Zn  0.92076512  0.29695581  0.11544138     1.55700
O135        O  0.93242694  0.19800316  0.16948159    -0.81100
Cd136      Cd  0.98156296  0.24699371  0.12477884     1.59700
Cd137      Cd  0.97166914  0.30725235  0.17522665     1.59600
O138        O  0.02886379  0.26059168  0.13670027    -0.81000
O139        O  0.94836881  0.27483718  0.14733222    -1.91600
Cd140      Cd  0.92103277  0.24680074  0.17597035     1.59900
O141        O  0.02159547  0.30312036  0.16974199    -0.81000
O142        O  0.87206300  0.25348508  0.16584296    -0.79700
C143        C  0.94007432  0.36503148  0.13960246     0.82900
C144        C  0.95596731  0.26619780  0.05699757     0.82500
O145        O  0.87296180  0.28684340  0.12331650    -0.78600
C146        C  0.95465562  0.18305587  0.15366800     0.83300
O147        O  0.92534286  0.34590823  0.12003516    -0.78700
C148        C  0.04025596  0.28346246  0.15442166     0.83500
C149        C  0.94488374  0.27942535  0.23951052     0.83800
O150        O  0.96198272  0.30017818  0.22418472    -0.81100
C151        C  0.99259714  0.87690792  0.15389167     0.80100
N152        N  0.02415216  0.86711798  0.15170099    -0.78200
C153        C  0.03216012  0.83513049  0.14819943     0.82500
N154        N  0.00802926  0.81262911  0.14669934    -0.78200
C155        C  0.97631891  0.82201633  0.14912454     0.82600
N156        N  0.96867464  0.85413320  0.15287373    -0.79900
C157        C  0.82416048  0.76756636  0.21654998     0.80100
N158        N  0.84665641  0.76852047  0.19241012    -0.78200
C159        C  0.87882911  0.77134371  0.19960176     0.82500
N160        N  0.88861455  0.77287174  0.23113021    -0.78200
C161        C  0.86643019  0.77133763  0.25551966     0.82600
N162        N  0.83431582  0.76883835  0.24796386    -0.79900
C163        C  0.92946453  0.70772686  0.04375340     0.80100
N164        N  0.92770730  0.67604917  0.05300099    -0.78200
C165        C  0.92508707  0.66776438  0.08475728     0.82500
N166        N  0.92397771  0.69170815  0.10763013    -0.78200
C167        C  0.92621764  0.72355164  0.09881597     0.82600
N168        N  0.92909443  0.73149291  0.06688935    -0.74700
C169        C  0.92600175  0.74921520  0.12389043     0.03000
C170        C  0.94985915  0.77357542  0.12386427    -0.13200
C171        C  0.95047637  0.79732386  0.14849451     0.00500
C172        C  0.92697618  0.79668666  0.17317014    -0.11700
C173        C  0.90301407  0.77243248  0.17334679     0.03000
C174        C  0.90259831  0.74878881  0.14864650    -0.11100
H175        H  0.96819598  0.77379032  0.10496202     0.08600
H176        H  0.92753534  0.81483287  0.19238831     0.06100
H177        H  0.88427844  0.72985453  0.14888242     0.05900
O178        O  0.34838405  0.76417012  0.18626860    -0.78600
C179        C  0.42251267  0.68834624  0.16764653     0.82400
O180        O  0.44317893  0.78959478  0.25267670    -0.79700
O181        O  0.50356760  0.75845909  0.15525731    -0.81200
O182        O  0.41083226  0.80323720  0.09730640    -0.81000
O183        O  0.35227693  0.80610926  0.15241491    -0.79700
Zn184      Zn  0.39523068  0.75164027  0.19659271     1.55700
O185        O  0.44634462  0.76197093  0.09612285    -0.81100
Cd186      Cd  0.40187163  0.81097613  0.14616169     1.59700
Cd187      Cd  0.45417078  0.80304113  0.20532934     1.59600
O188        O  0.41449934  0.85833138  0.15792251    -0.81000
O189        O  0.42615681  0.77890728  0.17356685    -1.91600
Cd190      Cd  0.45463011  0.75146993  0.14479767     1.59900
O191        O  0.44806588  0.85307778  0.20025260    -0.81000
O192        O  0.44472532  0.70258932  0.15154503    -0.79700
C193        C  0.42185578  0.77012734  0.26386519     0.82900
C194        C  0.33516443  0.78607958  0.16858406     0.82500
O195        O  0.40196610  0.70436839  0.18462520    -0.78600
C196        C  0.42846452  0.78293842  0.08160988     0.83300
O197        O  0.40232459  0.75496664  0.24508477    -0.78700
C198        C  0.43240725  0.87077859  0.18001830     0.83500
C199        C  0.51842142  0.77523272  0.17678352     0.83800
O200        O  0.50302183  0.79287773  0.19727983    -0.81100
C201        C  0.78884136  0.76625776  0.20889493    -0.03500
C202        C  0.77765348  0.76824258  0.17657709    -0.09300
C203        C  0.74423252  0.76867334  0.16972671    -0.16900
C204        C  0.72157984  0.76700549  0.19502628     0.25200
C205        C  0.73247613  0.76451738  0.22715292    -0.18600
C206        C  0.76580177  0.76412991  0.23406926    -0.07500
C207        C  0.68713258  0.76832285  0.18835283    -0.13900
C208        C  0.65801428  0.76970409  0.18450771    -0.13700
C209        C  0.62305644  0.77155962  0.18178363     0.25100
C210        C  0.60567851  0.79435937  0.20037789    -0.19100
C211        C  0.57168563  0.79563784  0.19865386    -0.07600
C212        C  0.55452698  0.77414740  0.17817934    -0.03600
C213        C  0.57224006  0.75146150  0.15936712    -0.08900
C214        C  0.60626671  0.75014956  0.16123997    -0.16600
H215        H  0.79466453  0.76993694  0.15660866     0.11600
H216        H  0.73607942  0.77059337  0.14474653     0.10800
H217        H  0.71517940  0.76316753  0.24693242     0.10800
H218        H  0.77345573  0.76248995  0.25920900     0.11300
H219        H  0.61839842  0.81102335  0.21640732     0.11400
H220        H  0.55885811  0.81345264  0.21338828     0.11300
H221        H  0.55980885  0.73450040  0.14345039     0.11500
H222        H  0.61945031  0.73231149  0.14682486     0.10300
C223        C  0.06693814  0.82509627  0.14743958    -0.03500
C224        C  0.09152407  0.84888974  0.14795665    -0.09300
C225        C  0.12430041  0.83978455  0.14934737    -0.16900
C226        C  0.13314779  0.80681630  0.15023975     0.25200
C227        C  0.10899548  0.78285722  0.14898332    -0.18600
C228        C  0.07606647  0.79192080  0.14753617    -0.07500
C229        C  0.16703912  0.79805942  0.15332268    -0.13900
C230        C  0.19595437  0.79359161  0.15635747    -0.13700
C231        C  0.23083762  0.79133843  0.15963541     0.25100
C232        C  0.24515184  0.76839374  0.18046368    -0.19100
C233        C  0.27909732  0.76677086  0.18370930    -0.07600
C234        C  0.29913773  0.78816806  0.16616843    -0.03600
C235        C  0.28440334  0.81128355  0.14551832    -0.08900
C236        C  0.25056062  0.81281475  0.14230018    -0.16600
H237        H  0.08549642  0.87463398  0.14776392     0.11600
H238        H  0.14277543  0.85854205  0.15020671     0.10800
H239        H  0.11557104  0.75723940  0.14958845     0.10800
H240        H  0.05780350  0.77297637  0.14712289     0.11300
H241        H  0.23010524  0.75176356  0.19416223     0.11400
H242        H  0.28962315  0.74871792  0.19981847     0.11300
H243        H  0.29901928  0.82812378  0.13163667     0.11500
H244        H  0.23976316  0.83079101  0.12624813     0.10300
C245        C  0.95649365  0.14697750  0.15531469    -0.03500
C246        C  0.93450768  0.12937902  0.17464480    -0.09300
C247        C  0.93613718  0.09531356  0.17593065    -0.16900
C248        C  0.95968905  0.07839672  0.15793399     0.25200
C249        C  0.98170851  0.09566512  0.13873176    -0.18600
C250        C  0.98015394  0.12970087  0.13741268    -0.07500
C251        C  0.96158118  0.04335320  0.15924248    -0.13900
C252        C  0.96476383  0.01409937  0.15976066    -0.13700
C253        C  0.97107440  0.97952108  0.15965995     0.25100
C254        C  0.94589561  0.95726412  0.15415529    -0.19100
C255        C  0.95264052  0.92374256  0.15287130    -0.07600
C256        C  0.98473650  0.91215255  0.15688516    -0.03600
C257        C  0.00972486  0.93478615  0.16284275    -0.08900
C258        C  0.00290929  0.96815948  0.16423947    -0.16600
H259        H  0.91603121  0.14189662  0.18875926     0.11600
H260        H  0.91902729  0.08218651  0.19094743     0.10800
H261        H  0.00009162  0.08281164  0.12476142     0.10800
H262        H  0.99744877  0.14244712  0.12230289     0.11300
H263        H  0.92114745  0.96582236  0.15050995     0.11400
H264        H  0.93287223  0.90701032  0.14815953     0.11300
H265        H  0.03467529  0.92677575  0.16621523     0.11500
H266        H  0.02257914  0.98515343  0.16852906     0.10300
C267        C  0.93607824  0.40079070  0.13585849    -0.03500
C268        C  0.91549737  0.41370396  0.11163990    -0.09300
C269        C  0.91189778  0.44745621  0.10812504    -0.16900
C270        C  0.92875304  0.46874163  0.12872867     0.25200
C271        C  0.94921753  0.45616486  0.15290894    -0.18600
C272        C  0.95284598  0.42243850  0.15649854    -0.07500
C273        C  0.92583516  0.50345685  0.12439234    -0.13900
C274        C  0.92433984  0.53238336  0.11937116    -0.13700
C275        C  0.92390929  0.56644022  0.11102401     0.25100
C276        C  0.91468695  0.59017159  0.13382789    -0.19100
C277        C  0.91496151  0.62326110  0.12543446    -0.07600
C278        C  0.92429974  0.63289175  0.09402449    -0.03600
C279        C  0.93333419  0.60876164  0.07131604    -0.08900
C280        C  0.93321416  0.57584329  0.07979911    -0.16600
H281        H  0.90222999  0.39776316  0.09535992     0.11600
H282        H  0.89610667  0.45694845  0.08921142     0.10800
H283        H  0.96251294  0.47242297  0.16887425     0.10800
H284        H  0.96890151  0.41334881  0.17536097     0.11300
H285        H  0.90742520  0.58312784  0.15809827     0.11400
H286        H  0.90778274  0.64122519  0.14341570     0.11300
H287        H  0.94087503  0.61528862  0.04699880     0.11500
H288        H  0.94049688  0.55770519  0.06200449     0.10300
C289        C  0.94416773  0.28041115  0.27557438    -0.03500
C290        C  0.92452965  0.25859290  0.29307025    -0.09300
C291        C  0.92358512  0.25971659  0.32704390    -0.16900
C292        C  0.94228298  0.28255949  0.34405013     0.25200
C293        C  0.96208629  0.30418696  0.32690857    -0.18600
C294        C  0.96305317  0.30314422  0.29293651    -0.07500
C295        C  0.94080143  0.28431528  0.37901722    -0.13900
C296        C  0.93994960  0.28742962  0.40818538    -0.13700
C297        C  0.93973058  0.29379253  0.44266329     0.25100
C298        C  0.94094461  0.26817171  0.46510159    -0.19100
C299        C  0.94189257  0.27485863  0.49853074    -0.07600
C300        C  0.94168432  0.30730080  0.50989245    -0.03600
C301        C  0.94003853  0.33277810  0.48703836    -0.08900
C302        C  0.93908175  0.32604144  0.45377925    -0.16600
H303        H  0.90973328  0.24074711  0.28052432     0.11600
H304        H  0.90814078  0.24287106  0.34002514     0.10800
H305        H  0.97666479  0.32199087  0.33980364     0.10800
H306        H  0.97851969  0.32020856  0.28029601     0.11300
H307        H  0.94146967  0.24308342  0.45677074     0.11400
H308        H  0.94313513  0.25467135  0.51539798     0.11300
H309        H  0.93977578  0.35804700  0.49476433     0.11500
H310        H  0.93815037  0.34607905  0.43668087     0.10300
C311        C  0.00294845  0.24966929  0.78957653    -0.03500
C312        C  0.02665848  0.24583887  0.81406524    -0.09300
C313        C  0.01791101  0.24688343  0.84686096    -0.16900
C314        C  0.98540000  0.25189175  0.85577156     0.25200
C315        C  0.96154917  0.25540096  0.83162914    -0.18600
C316        C  0.97022159  0.25419728  0.79874451    -0.07500
C317        C  0.97683314  0.25392084  0.88970271    -0.13900
C318        C  0.97125254  0.25577195  0.91845695    -0.13700
C319        C  0.96655479  0.25784999  0.95314497     0.25100
C320        C  0.94229925  0.27810423  0.96625899    -0.19100
C321        C  0.93854161  0.28069004  0.00001925    -0.07600
C322        C  0.95909677  0.26306612  0.02113574    -0.03600
C323        C  0.98323228  0.24260404  0.00762219    -0.08900
C324        C  0.98690030  0.24004710  0.97394419    -0.16600
H325        H  0.05204500  0.24218563  0.80792643     0.11600
H326        H  0.03659413  0.24407339  0.86529753     0.10800
H327        H  0.93630449  0.25933185  0.83821117     0.10800
H328        H  0.95138812  0.25738759  0.78055010     0.11300
H329        H  0.92643896  0.29207698  0.95040751     0.11400
H330        H  0.91975972  0.29666841  0.00956101     0.11300
H331        H  0.99948064  0.22864385  0.02307064     0.11500
H332        H  0.00579591  0.22433820  0.96412997     0.10300
C333        C  0.32261156  0.25694422  0.67873472    -0.03500
C334        C  0.30534098  0.28031560  0.66040462    -0.09300
C335        C  0.27132878  0.28171636  0.66149130    -0.16900
C336        C  0.25413558  0.25971168  0.68076322     0.25200
C337        C  0.27106589  0.23634204  0.69899734    -0.18600
C338        C  0.30506751  0.23496460  0.69805595    -0.07500
C339        C  0.21917240  0.26132499  0.68242566    -0.13900
C340        C  0.19001685  0.26187249  0.68571301    -0.13700
C341        C  0.15565566  0.26146819  0.69241424     0.25100
C342        C  0.14487091  0.26635768  0.72426173    -0.19100
C343        C  0.11175494  0.26447057  0.73152027    -0.07600
C344        C  0.08882451  0.25775911  0.70695572    -0.03600
C345        C  0.09983116  0.25335721  0.67484992    -0.08900
C346        C  0.13308859  0.25511003  0.66766836    -0.16600
H347        H  0.31809892  0.29763608  0.64532687     0.11600
H348        H  0.25847246  0.29998183  0.64737501     0.10800
H349        H  0.25797163  0.21921992  0.71404023     0.10800
H350        H  0.31758125  0.21660963  0.71233146     0.11300
H351        H  0.16212963  0.27126137  0.74360049     0.11400
H352        H  0.10417044  0.26815324  0.75645192     0.11300
H353        H  0.08285193  0.24805692  0.65539906     0.11500
H354        H  0.14120976  0.25116702  0.64292831     0.10300
C355        C  0.57656215  0.23774043  0.66203979    -0.03500
C356        C  0.59017407  0.21514369  0.64002264    -0.09300
C357        C  0.62394741  0.21241617  0.63660776    -0.16900
C358        C  0.64462361  0.23220747  0.65508810     0.25200
C359        C  0.63136521  0.25487432  0.67692774    -0.18600
C360        C  0.59757531  0.25768444  0.68037318    -0.07500
C361        C  0.67940111  0.22833436  0.65244096    -0.13900
C362        C  0.70832264  0.22325482  0.65092158    -0.13700
C363        C  0.74233846  0.21452975  0.65019590     0.25100
C364        C  0.76616376  0.23800241  0.64400407    -0.19100
C365        C  0.79918660  0.22919126  0.64404303    -0.07600
C366        C  0.80872787  0.19673803  0.65019803    -0.03600
C367        C  0.78448469  0.17337291  0.65616307    -0.08900
C368        C  0.75161832  0.18224278  0.65619512    -0.16600
H369        H  0.57475188  0.19946887  0.62547251     0.11600
H370        H  0.63393775  0.19468718  0.61972528     0.10800
H371        H  0.64714391  0.27021602  0.69147532     0.10800
H372        H  0.58794279  0.27533607  0.69751169     0.11300
H373        H  0.75924537  0.26309141  0.63932166     0.11400
H374        H  0.81718543  0.24776718  0.63930584     0.11300
H375        H  0.79085210  0.14820800  0.66111321     0.11500
H376        H  0.73340709  0.16388157  0.66107400     0.10300
C377        C  0.41969939  0.76475770  0.29946498    -0.03500
C378        C  0.39649452  0.74313888  0.31218036    -0.09300
C379        C  0.39401016  0.73834819  0.34569740    -0.16900
C380        C  0.41465724  0.75499027  0.36707604     0.25200
C381        C  0.43814738  0.77620284  0.35470481    -0.18600
C382        C  0.44070326  0.78104104  0.32113001    -0.07500
C383        C  0.41050226  0.75139205  0.40166589    -0.13900
C384        C  0.40461815  0.74901708  0.43029071    -0.13700
C385        C  0.39472671  0.74718687  0.46383673     0.25100
C386        C  0.41779334  0.74816825  0.48893507    -0.19100
C387        C  0.40771540  0.74771233  0.52143877    -0.07600
C388        C  0.37436748  0.74638695  0.52926294    -0.03600
C389        C  0.35146794  0.74495549  0.50377870    -0.08900
C390        C  0.36159705  0.74534357  0.47138872    -0.16600
H391        H  0.38003327  0.73008386  0.29626217     0.11600
H392        H  0.37566581  0.72194611  0.35496594     0.10800
H393        H  0.45420877  0.78930519  0.37101139     0.10800
H394        H  0.45892228  0.79772981  0.31218382     0.11300
H395        H  0.44351814  0.74963849  0.48340374     0.11400
H396        H  0.42601409  0.74885836  0.54038557     0.11300
H397        H  0.32563222  0.74382702  0.50879450     0.11500
H398        H  0.34350690  0.74457544  0.45219239     0.10300
C399        C  0.48371577  0.61125397  0.66814640    -0.03500
C400        C  0.50930497  0.58849889  0.66474555    -0.09300
C401        C  0.50307473  0.55508787  0.66474162    -0.16900
C402        C  0.47122542  0.54381586  0.66815091     0.25200
C403        C  0.44547504  0.56615415  0.67120881    -0.18600
C404        C  0.45164306  0.59971995  0.67115194    -0.07500
C405        C  0.46539527  0.50926587  0.66881430    -0.13900
C406        C  0.46246468  0.48003877  0.66933775    -0.13700
C407        C  0.46051954  0.44501939  0.66975642     0.25100
C408        C  0.43853858  0.42889589  0.64935274    -0.19100
C409        C  0.43700536  0.39483483  0.64939170    -0.07600
C410        C  0.45754298  0.37642612  0.66983299    -0.03600
C411        C  0.47961018  0.39290727  0.69023666    -0.08900
C412        C  0.48105260  0.42697064  0.69017811    -0.16600
H413        H  0.53427773  0.59643762  0.66225964     0.11600
H414        H  0.52316758  0.53801815  0.66229912     0.10800
H415        H  0.42069534  0.55764317  0.67385586     0.10800
H416        H  0.43141525  0.61654970  0.67387774     0.11300
H417        H  0.42262357  0.44264486  0.63336551     0.11400
H418        H  0.41976581  0.38294530  0.63338304     0.11300
H419        H  0.49571520  0.37951710  0.70631530     0.11500
H420        H  0.49823147  0.43922259  0.70601062     0.10300
C421        C  0.42503434  0.80873177  0.81117979    -0.03500
C422        C  0.42590577  0.83440816  0.83401983    -0.09300
C423        C  0.42658317  0.82795545  0.86730076    -0.16900
C424        C  0.42642490  0.79579294  0.87845069     0.25200
C425        C  0.42576142  0.76998734  0.85604359    -0.18600
C426        C  0.42508368  0.77638798  0.82259690    -0.07500
C427        C  0.42670092  0.78967642  0.91292429    -0.13900
C428        C  0.42676895  0.78670695  0.94209477    -0.13700
C429        C  0.42676183  0.78519181  0.97708336     0.25100
C430        C  0.44613557  0.76220845  0.99330648    -0.19100
C431        C  0.44671630  0.76141106  0.02730199    -0.07600
C432        C  0.42792366  0.78366900  0.04555991    -0.03600
C433        C  0.40836906  0.80655014  0.02897515    -0.08900
C434        C  0.40784109  0.80729002  0.99501183    -0.16600
H435        H  0.42590541  0.85961394  0.82625914     0.11600
H436        H  0.42709820  0.84813377  0.88437785     0.10800
H437        H  0.42563281  0.74496439  0.86440793     0.10800
H438        H  0.42440335  0.75605550  0.80575081     0.11300
H439        H  0.46091982  0.74501199  0.97969109     0.11400
H440        H  0.46194364  0.74342089  0.03925829     0.11300
H441        H  0.39352301  0.82397447  0.04221346     0.11500
H442        H  0.39278470  0.82523107  0.98273161     0.10300
C443        C  0.43796960  0.12168988  0.68262223    -0.03500
C444        C  0.41909732  0.10843959  0.70779211    -0.09300
C445        C  0.41531546  0.07468442  0.71048634    -0.16900
C446        C  0.43022268  0.05367397  0.68808179     0.25200
C447        C  0.44902480  0.06656049  0.66294206    -0.18600
C448        C  0.45290037  0.10033250  0.66021629    -0.07500
C449        C  0.42694650  0.01891041  0.69159914    -0.13900
C450        C  0.42467253  0.99003986  0.69658349    -0.13700
C451        C  0.42277001  0.95617629  0.70549629     0.25100
C452        C  0.42036815  0.93175097  0.68175622    -0.19100
C453        C  0.41929988  0.89887984  0.69087591    -0.07600
C454        C  0.42062601  0.89010006  0.72391648    -0.03600
C455        C  0.42283301  0.91494648  0.74750679    -0.08900
C456        C  0.42389358  0.94766519  0.73834362    -0.16600
H457        H  0.40731880  0.12412495  0.72547354     0.11600
H458        H  0.40085283  0.06496111  0.73016230     0.10800
H459        H  0.46079737  0.05051977  0.64555072     0.10800
H460        H  0.46755189  0.10969282  0.64053013     0.11300
H461        H  0.41952487  0.93808080  0.65622186     0.11400
H462        H  0.41765550  0.88041263  0.67209454     0.11300
H463        H  0.42396899  0.90918365  0.77315045     0.11500
H464        H  0.42579987  0.96635122  0.75691413     0.10300
C465        C  0.05086567  0.75044866  0.64133009    -0.03500
C466        C  0.06679660  0.73102484  0.61792427    -0.09300
C467        C  0.10072453  0.73138604  0.61530259    -0.16900
C468        C  0.11926563  0.75110874  0.63599008     0.25200
C469        C  0.10372397  0.77025971  0.65960006    -0.18600
C470        C  0.06975631  0.76992763  0.66230043    -0.07500
C471        C  0.15414333  0.75205723  0.63243182    -0.13900
C472        C  0.18319983  0.75255868  0.62818702    -0.13700
C473        C  0.21768876  0.75276624  0.62182838     0.25100
C474        C  0.23998475  0.74642233  0.64683079    -0.19100
C475        C  0.27344712  0.74617302  0.64045016    -0.07600
C476        C  0.28505212  0.75207954  0.60886639    -0.03600
C477        C  0.26240621  0.75846915  0.58391494    -0.08900
C478        C  0.22899727  0.75889108  0.59039892    -0.16600
H479        H  0.05305597  0.71567220  0.60146903     0.11600
H480        H  0.11248704  0.71644674  0.59694973     0.10800
H481        H  0.11782672  0.78562304  0.67575709     0.10800
H482        H  0.05830221  0.78511812  0.68062031     0.11300
H483        H  0.23150888  0.74153042  0.67123320     0.11400
H484        H  0.29017599  0.74095555  0.66015440     0.11300
H485        H  0.27047405  0.76320632  0.55935707     0.11500
H486        H  0.21197405  0.76382686  0.57084662     0.10300
C487        C  0.92773337  0.74393567  0.77517200    -0.03500
C488        C  0.90626295  0.72364525  0.79229453    -0.09300
C489        C  0.90685062  0.72282205  0.82623981    -0.16900
C490        C  0.92887828  0.74218656  0.84356132     0.25200
C491        C  0.95029683  0.76248559  0.82680075    -0.18600
C492        C  0.94970680  0.76342597  0.79283328    -0.07500
C493        C  0.92995176  0.74051075  0.87847327    -0.13900
C494        C  0.93065930  0.73721471  0.90756628    -0.13700
C495        C  0.93114725  0.73034679  0.94183312     0.25100
C496        C  0.93160560  0.75563897  0.96479945    -0.19100
C497        C  0.93148902  0.74846086  0.99806399    -0.07600
C498        C  0.93088390  0.71585342  0.00868445    -0.03600
C499        C  0.93072989  0.69069951  0.98528429    -0.08900
C500        C  0.93083334  0.69792735  0.95219036    -0.16600
H501        H  0.88898939  0.70840311  0.77949184     0.11600
H502        H  0.89021882  0.70694138  0.83897599     0.10800
H503        H  0.96754334  0.77746631  0.83996825     0.10800
H504        H  0.96659225  0.77926616  0.78042317     0.11300
H505        H  0.93185285  0.78085344  0.95701617     0.11400
H506        H  0.93158582  0.76839858  0.01538668     0.11300
H507        H  0.93025515  0.66532212  0.99245867     0.11500
H508        H  0.93047585  0.67816214  0.93463804     0.10300
C509        C  0.92060742  0.87619931  0.65258019    -0.03500
C510        C  0.89681492  0.89380496  0.63517129    -0.09300
C511        C  0.89637621  0.92787591  0.63596823    -0.16900
C512        C  0.91968569  0.94485389  0.65408000     0.25200
C513        C  0.94360274  0.92763613  0.67130538    -0.18600
C514        C  0.94409370  0.89351918  0.67057129    -0.07500
C515        C  0.91828615  0.97989106  0.65559955    -0.13900
C516        C  0.91476410  0.00908090  0.65664092    -0.13700
C517        C  0.90743134  0.04342371  0.65740985     0.25100
C518        C  0.87492093  0.05370090  0.65767583    -0.19100
C519        C  0.86725805  0.08690761  0.65758168    -0.07600
C520        C  0.89207608  0.11044690  0.65715946    -0.03600
C521        C  0.92477446  0.09988553  0.65730552    -0.08900
C522        C  0.93238224  0.06654435  0.65740285    -0.16600
H523        H  0.87842172  0.88128492  0.62104414     0.11600
H524        H  0.87769563  0.94098619  0.62261413     0.10800
H525        H  0.96171754  0.94055359  0.68545960     0.10800
H526        H  0.96279993  0.88073760  0.68416328     0.11300
H527        H  0.85542219  0.03599785  0.65768651     0.11400
H528        H  0.84184241  0.09406633  0.65748808     0.11300
H529        H  0.94447569  0.11732085  0.65697284     0.11500
H530        H  0.95765121  0.05882281  0.65720230     0.10300
C531        C  0.87696888  0.77167343  0.29003761    -0.03500
C532        C  0.91023040  0.77078237  0.29847188    -0.09300
C533        C  0.91982811  0.76979179  0.33114140    -0.16900
C534        C  0.89633181  0.76978481  0.35573261     0.25200
C535        C  0.86328244  0.77113136  0.34757473    -0.18600
C536        C  0.85363905  0.77205255  0.31503938    -0.07500
C537        C  0.90566794  0.76783999  0.38941505    -0.13900
C538        C  0.91060755  0.76590133  0.41824310    -0.13700
C539        C  0.91321976  0.76362523  0.45305480     0.25100
C540        C  0.89080160  0.78031867  0.47261454    -0.19100
C541        C  0.89225497  0.77742985  0.50639513    -0.07600
C542        C  0.91618449  0.75769513  0.52117691    -0.03600
C543        C  0.93874097  0.74107157  0.50130462    -0.08900
C544        C  0.93723339  0.74402898  0.46744867    -0.16600
H545        H  0.92883285  0.77043238  0.27987285     0.11600
H546        H  0.94549903  0.76876033  0.33718949     0.10800
H547        H  0.84488812  0.77118443  0.36641160     0.10800
H548        H  0.82785502  0.77282637  0.30952981     0.11300
H549        H  0.87201780  0.79543345  0.46172747     0.11400
H550        H  0.87453252  0.79058629  0.52090509     0.11300
H551        H  0.95750870  0.72575277  0.51188453     0.11500
H552        H  0.95463805  0.73088765  0.45252436     0.10300
C553        C  0.93302891  0.62142829  0.63862556    -0.03500
C554        C  0.91443908  0.60051296  0.65820133    -0.09300
C555        C  0.91775712  0.56664997  0.65531479    -0.16900
C556        C  0.93973485  0.55326330  0.63295452     0.25200
C557        C  0.95846401  0.57384090  0.61353296    -0.18600
C558        C  0.95515182  0.60768156  0.61631214    -0.07500
C559        C  0.94237728  0.51845935  0.62906376    -0.13900
C560        C  0.94426604  0.48954903  0.62391360    -0.13700
C561        C  0.94604192  0.45559372  0.61511495     0.25100
C562        C  0.94843826  0.44686557  0.58234171    -0.19100
C563        C  0.94939041  0.41404222  0.57326786    -0.07600
C564        C  0.94801964  0.38934949  0.59690012    -0.03600
C565        C  0.94592317  0.39834579  0.62988677    -0.08900
C566        C  0.94487695  0.43130328  0.63890804    -0.16600
H567        H  0.89719113  0.61028262  0.67560231     0.11600
H568        H  0.90303261  0.55092448  0.67036394     0.10800
H569        H  0.97547413  0.56372269  0.59606564     0.10800
H570        H  0.96990579  0.62305153  0.60095420     0.11300
H571        H  0.94934921  0.46547022  0.56373162     0.11400
H572        H  0.95106828  0.40806679  0.54767583     0.11300
H573        H  0.94468742  0.37997909  0.64867844     0.11500
H574        H  0.94295039  0.43781857  0.66436798     0.10300
C575        C  0.56442225  0.69888684  0.67281245    -0.03500
C576        C  0.57330131  0.73179133  0.67671502    -0.09300
C577        C  0.60610598  0.74092676  0.67540974    -0.16900
C578        C  0.63034823  0.71732366  0.67013441     0.25200
C579        C  0.62174131  0.68456831  0.66660368    -0.18600
C580        C  0.58911629  0.67538593  0.66797310    -0.07500
C581        C  0.66410669  0.72633535  0.66786808    -0.13900
C582        C  0.69290419  0.73140925  0.66546590    -0.13700
C583        C  0.72766965  0.73479206  0.66258504     0.25100
C584        C  0.74822245  0.71137160  0.67654058    -0.19100
C585        C  0.78197050  0.71401881  0.67348867    -0.07600
C586        C  0.79575283  0.74015018  0.65629713    -0.03600
C587        C  0.77488328  0.76357845  0.64224494    -0.08900
C588        C  0.74104810  0.76089967  0.64541026    -0.16600
H589        H  0.55494910  0.75047276  0.68055663     0.11600
H590        H  0.61252207  0.76637116  0.67825022     0.10800
H591        H  0.64027694  0.66608406  0.66253164     0.10800
H592        H  0.58328736  0.64984542  0.66481236     0.11300
H593        H  0.73814914  0.69097177  0.68974940     0.11400
H594        H  0.79725056  0.69549864  0.68454443     0.11300
H595        H  0.78467520  0.78400661  0.62891068     0.11500
H596        H  0.72534912  0.77911849  0.63440832     0.10300
C597        C  0.42066816  0.65231374  0.16695371    -0.03500
C598        C  0.39337146  0.63634244  0.17980090    -0.09300
C599        C  0.39178672  0.60232627  0.17969092    -0.16900
C600        C  0.41746578  0.58379306  0.16691496     0.25200
C601        C  0.44473618  0.59939940  0.15403686    -0.18600
C602        C  0.44631879  0.63347754  0.15396918    -0.07500
C603        C  0.41542343  0.54879523  0.16680352    -0.13900
C604        C  0.41166576  0.51967224  0.16696715    -0.13700
C605        C  0.40458055  0.48537164  0.16731876     0.25100
C606        C  0.42934462  0.46238910  0.17261608    -0.19100
C607        C  0.42202537  0.42910151  0.17338017    -0.07600
C608        C  0.38975847  0.41846853  0.16903004    -0.03600
C609        C  0.36511834  0.44183108  0.16359383    -0.08900
C610        C  0.37251662  0.47500825  0.16270007    -0.16600
H611        H  0.37318285  0.65011854  0.18986505     0.11600
H612        H  0.37050871  0.59046698  0.18960249     0.10800
H613        H  0.46473176  0.58525655  0.14405997     0.10800
H614        H  0.46772570  0.64504633  0.14403614     0.11300
H615        H  0.45425210  0.47018866  0.17630500     0.11400
H616        H  0.44152682  0.41177947  0.17777821     0.11300
H617        H  0.34005623  0.43452420  0.16004238     0.11500
H618        H  0.35317529  0.49260946  0.15857612     0.10300
C619        C  0.30715187  0.33236128  0.17608086    -0.03500
C620        C  0.29812485  0.29950781  0.17989965    -0.09300
C621        C  0.26528492  0.29048149  0.17863582    -0.16900
C622        C  0.24106872  0.31412854  0.17352315     0.25200
C623        C  0.24977566  0.34689600  0.17038049    -0.18600
C624        C  0.28249053  0.35598080  0.17170028    -0.07500
C625        C  0.20730875  0.30501441  0.17074999    -0.13900
C626        C  0.17862922  0.29932855  0.16785994    -0.13700
C627        C  0.14397276  0.29484004  0.16453590     0.25100
C628        C  0.12258796  0.31531001  0.18155350    -0.19100
C629        C  0.08894090  0.31163915  0.17814705    -0.07600
C630        C  0.07606326  0.28735147  0.15761707    -0.03600
C631        C  0.09776110  0.26686191  0.14053270    -0.08900
C632        C  0.13149307  0.27062689  0.14396777    -0.16600
H633        H  0.31641689  0.28071882  0.18345855     0.11600
H634        H  0.25883316  0.26504045  0.18122481     0.10800
H635        H  0.23126742  0.36543614  0.16648680     0.10800
H636        H  0.28843288  0.38148793  0.16869544     0.11300
H637        H  0.13193233  0.33421285  0.19744406     0.11400
H638        H  0.07302583  0.32783751  0.19167854     0.11300
H639        H  0.08870180  0.24795693  0.12450990     0.11500
H640        H  0.14780888  0.25471401  0.13054984     0.10300
C641        C  0.44240153  0.24291505  0.54577586    -0.03500
C642        C  0.45952140  0.21839279  0.52881545    -0.09300
C643        C  0.45900270  0.21733608  0.49488148    -0.16900
C644        C  0.44139910  0.24072758  0.47733860     0.25200
C645        C  0.42405358  0.26508548  0.49392022    -0.18600
C646        C  0.42452229  0.26620391  0.52792433    -0.07500
C647        C  0.44120813  0.23945197  0.44235708    -0.13900
C648        C  0.44165621  0.23668137  0.41316822    -0.13700
C649        C  0.44250640  0.23091588  0.37863391     0.25100
C650        C  0.44747925  0.25663315  0.35690249    -0.19100
C651        C  0.44853548  0.25058362  0.32338439    -0.07600
C652        C  0.44477004  0.21867990  0.31124307    -0.03600
C653        C  0.43978552  0.19307151  0.33338864    -0.08900
C654        C  0.43863449  0.19919069  0.36675447    -0.16600
H655        H  0.47349440  0.20005859  0.54173727     0.11600
H656        H  0.47243328  0.19831129  0.48231520     0.10800
H657        H  0.41025654  0.28326881  0.48058107     0.10800
H658        H  0.41106054  0.28537998  0.54019047     0.11300
H659        H  0.45061731  0.28129116  0.36585209     0.11400
H660        H  0.45257485  0.27081176  0.30705058     0.11300
H661        H  0.43673112  0.16822290  0.32499250     0.11500
H662        H  0.43480913  0.17908463  0.38333012     0.10300
C663        C  0.43522830  0.90677078  0.18205082    -0.03500
C664        C  0.42003855  0.92686658  0.15873646    -0.09300
C665        C  0.42288740  0.96081011  0.16055140    -0.16900
C666        C  0.44091641  0.97510872  0.18565679     0.25200
C667        C  0.45609386  0.95536723  0.20894194    -0.18600
C668        C  0.45333445  0.92144323  0.20716424    -0.07500
C669        C  0.44319608  0.01002300  0.18828469    -0.13900
C670        C  0.44505765  0.03896540  0.19311427    -0.13700
C671        C  0.44699278  0.07269395  0.20261339     0.25100
C672        C  0.44811199  0.09749040  0.17934189    -0.19100
C673        C  0.44940391  0.13020123  0.18917795    -0.07600
C674        C  0.44953374  0.13841670  0.22244723    -0.03600
C675        C  0.44868426  0.11319661  0.24553354    -0.08900
C676        C  0.44742239  0.08064741  0.23565970    -0.16600
H677        H  0.40596798  0.91638883  0.13905792     0.11600
H678        H  0.41092334  0.97587671  0.14247965     0.10800
H679        H  0.46996785  0.96621815  0.22858563     0.10800
H680        H  0.46529642  0.90674542  0.22551325     0.11300
H681        H  0.44778969  0.09157497  0.15366482     0.11400
H682        H  0.44998748  0.14899001  0.17076988     0.11300
H683        H  0.44875616  0.11853809  0.27131889     0.11500
H684        H  0.44657930  0.06163862  0.25386153     0.10300
C685        C  0.82114278  0.26996331  0.14323675    -0.03500
C686        C  0.80392858  0.29141255  0.12271846    -0.09300
C687        C  0.76985799  0.29133075  0.12199030    -0.16900
C688        C  0.75244632  0.26979581  0.14165077     0.25200
C689        C  0.76930862  0.24852082  0.16232573    -0.18600
C690        C  0.80339585  0.24864068  0.16319859    -0.07500
C691        C  0.71737491  0.26896072  0.13971492    -0.13900
C692        C  0.68818899  0.26853075  0.13606710    -0.13700
C693        C  0.65376045  0.26859365  0.12901099     0.25100
C694        C  0.63081488  0.27171916  0.15396441    -0.19100
C695        C  0.59748775  0.27288672  0.14661748    -0.07600
C696        C  0.58668400  0.27106389  0.11414350    -0.03600
C697        C  0.60999618  0.26746518  0.08934083    -0.08900
C698        C  0.64320797  0.26623899  0.09674858    -0.16600
H699        H  0.81676903  0.30829479  0.10722726     0.11600
H700        H  0.75708944  0.30790969  0.10587577     0.10800
H701        H  0.75613365  0.23167899  0.17760443     0.10800
H702        H  0.81584020  0.23184610  0.17931527     0.11300
H703        H  0.63867409  0.27357053  0.17904921     0.11400
H704        H  0.58026364  0.27565883  0.16631926     0.11300
H705        H  0.60265244  0.26585479  0.06410166     0.11500
H706        H  0.66070958  0.26378105  0.07722513     0.10300
C707        C  0.45813475  0.25753815  0.80023479    -0.03500
C708        C  0.47936005  0.28056079  0.81417021    -0.09300
C709        C  0.48195940  0.28374113  0.84787610    -0.16900
C710        C  0.46349169  0.26396069  0.86831304     0.25200
C711        C  0.44220202  0.24099356  0.85478363    -0.18600
C712        C  0.43944176  0.23784084  0.82094256    -0.07500
C713        C  0.46724751  0.26694729  0.90306425    -0.13900
C714        C  0.47260259  0.26998254  0.93178686    -0.13700
C715        C  0.48155530  0.27342997  0.96554802     0.25100
C716        C  0.45769278  0.27522993  0.98975841    -0.19100
C717        C  0.46675867  0.27744901  0.02254899    -0.07600
C718        C  0.49986933  0.27781018  0.03156087    -0.03600
C719        C  0.52359811  0.27660647  0.00691907    -0.08900
C720        C  0.51448272  0.27443967  0.97424543    -0.16600
H721        H  0.49400872  0.29623929  0.79902055     0.11600
H722        H  0.49855469  0.30155033  0.85800868     0.10800
H723        H  0.42786242  0.22543505  0.87036461     0.10800
H724        H  0.42292820  0.21986490  0.81102260     0.11300
H725        H  0.43211276  0.27454972  0.98333268     0.11400
H726        H  0.44784405  0.27834100  0.04081839     0.11300
H727        H  0.54929473  0.27693915  0.01283657     0.11500
H728        H  0.53319070  0.27317478  0.95574948     0.10300
loop_ 
_geom_bond_atom_site_label_1 
_geom_bond_atom_site_label_2 
_geom_bond_distance 
_geom_bond_site_symmetry_2 
_ccdc_geom_bond_type 
C1            N2   1.359       .  A
C1            N6   1.359       .  A
C1          C696   1.486       .  S
N2            C3   1.359       .  A
C3            N4   1.361       .  A
C3          C718   1.487       .  S
N4            C5   1.360       .  A
C5            N6   1.359       .  A
C5           C21   1.474       .  S
C7            N8   1.361       .  A
C7           N12   1.357       .  A
C7          C652   1.484       .  S
N8            C9   1.361       .  A
C9           N10   1.358       .  A
C9           C23   1.470       .  S
N10          C11   1.357       .  A
C11          N12   1.357       .  A
C11         C674   1.482       .  S
C13          N14   1.358       .  A
C13          N18   1.358       .  A
C13         C608   1.481       .  S
N14          C15   1.358       .  A
C15          N16   1.360       .  A
C15         C619   1.486       .  S
N16          C17   1.360       .  A
C17          N18   1.358       .  A
C17          C19   1.471       .  S
C19          C20   1.406       .  A
C19          C24   1.403       .  A
C20          C21   1.404       .  A
C20          H25   1.084       .  S
C21          C22   1.403       .  A
C22          C23   1.403       .  A
C22          H26   1.084       .  S
C23          C24   1.402       .  A
C24          H27   1.084       .  S
O28          C44   1.276       .  A
O28         Zn34   2.026       .  S
C29         C465   1.484       .  S
C29          O45   1.275   1_455  A
C29          O42   1.275       .  A
O30          C43   1.275       .  A
O30         Cd37   2.068       .  S
O31          C49   1.275       .  A
O31         Cd40   2.072       .  S
O32          C46   1.276       .  A
O32         Cd36   2.070       .  S
O33          C44   1.275       .  A
O33         Cd36   2.067       .  S
Zn34         O45   2.021       .  S
Zn34         O47   2.019       .  S
Zn34         O39   1.946       .  S
O35          C46   1.275       .  A
O35         Cd40   2.069       .  S
Cd36         O38   2.082       .  S
Cd36         O39   2.001       .  S
Cd37         O41   2.066       .  S
Cd37         O50   2.069       .  S
Cd37         O39   1.997       .  S
O38          C48   1.276       .  A
O39         Cd40   2.001       .  S
Cd40         O42   2.071   1_655  S
O41          C48   1.275       .  A
C43         C553   1.482       .  S
C43          O47   1.275       .  A
C44         C542   1.483       .  S
C46         C509   1.482       .  S
C48         C586   1.484       .  S
C49         C487   1.482       .  S
C49          O50   1.275       .  A
C51          N52   1.361       .  A
C51          N56   1.357       .  A
C51         C421   1.487       .  S
N52          C53   1.362       .  A
C53          N54   1.359       .  A
C53          C69   1.473       .  S
N54          C55   1.358       .  A
C55          N56   1.357       .  A
C55         C454   1.484       .  S
C57          N58   1.356       .  A
C57          N62   1.359       .  A
C57         C399   1.482       .  S
N58          C59   1.356       .  A
C59          N60   1.360       .  A
C59         C575   1.484       .  S
N60          C61   1.361       .  A
C61          N62   1.359       .  A
C61          C71   1.470       .  S
C63          N64   1.359       .  A
C63          N68   1.360       .  A
C63         C476   1.484       .  S
N64          C65   1.359       .  A
C65          N66   1.360       .  A
C65         C388   1.487       .  S
N66          C67   1.360       .  A
C67          N68   1.359       .  A
C67          C73   1.474       .  S
C69          C70   1.403       .  A
C69          C74   1.406       .  A
C70          C71   1.402       .  A
C70          H75   1.084       .  S
C71          C72   1.403       .  A
C72          C73   1.403       .  A
C72          H76   1.084       .  S
C73          C74   1.405       .  A
C74          H77   1.084       .  S
O78          C94   1.277       .  A
O78         Zn84   2.041       .  S
C79         C333   1.482       .  S
C79          O95   1.277       .  A
C79          O92   1.274       .  A
O80          C93   1.275       .  A
O80         Cd87   2.070       .  S
O81          C99   1.275       .  A
O81         Cd90   2.074       .  S
O82          C96   1.275       .  A
O82         Cd86   2.068       .  S
O83          C94   1.275       .  A
O83         Cd86   2.061       .  S
Zn84         O95   2.029       .  S
Zn84         O97   2.027       .  S
Zn84         O89   1.953       .  S
O85          C96   1.275       .  A
O85         Cd90   2.070       .  S
Cd86         O88   2.073       .  S
Cd86         O89   1.997       .  S
Cd87         O91   2.071       .  S
Cd87        O100   2.069       .  S
Cd87         O89   1.999       .  S
O88          C98   1.276       .  A
O89         Cd90   2.002       .  S
Cd90         O92   2.062       .  S
O91          C98   1.276       .  A
C93         C443   1.484       .  S
C93          O97   1.276       .  A
C94         C707   1.485       .  S
C96         C410   1.482       .  S
C98         C355   1.484       .  S
C99         C641   1.484       .  S
C99         O100   1.275       .  A
C101        N102   1.359       .  A
C101        N106   1.359       .  A
C101        C344   1.483       .  S
N102        C103   1.359   1_455  A
C103        N104   1.360       .  A
C103        C123   1.473       .  S
N104        C105   1.360   1_655  A
C105        N106   1.358       .  A
C105        C311   1.485       .  S
C107        N108   1.358       .  A
C107        N112   1.361       .  A
C107        C300   1.486       .  S
N108        C109   1.357       .  A
C109        N110   1.358       .  A
C109        C564   1.482       .  S
N110        C111   1.359       .  A
C111        N112   1.361       .  A
C111        C119   1.471       .  S
C113        N114   1.358       .  A
C113        N118   1.357       .  A
C113        C520   1.483       .  S
N114        C115   1.358       .  A
C115        N116   1.360       .  A
C115        C121   1.470       .  S
N116        C117   1.360       .  A
C117        N118   1.358       .  A
C117        C366   1.484       .  S
C119        C120   1.402       .  A
C119        C124   1.404       .  A
C120        C121   1.403       .  A
C120        H125   1.084       .  S
C121        C122   1.403       .  A
C122        C123   1.402       .  A
C122        H126   1.084       .  S
C123        C124   1.404       .  A
C124        H127   1.084       .  S
O128        C144   1.278       .  A
O128       Zn134   2.043       .  S
C129        C685   1.486       .  S
C129        O145   1.277       .  A
C129        O142   1.275       .  A
O130        C143   1.275       .  A
O130       Cd137   2.067       .  S
O131        C149   1.275       .  A
O131       Cd140   2.072       .  S
O132        C146   1.276       .  A
O132       Cd136   2.071       .  S
O133        C144   1.275       .  A
O133       Cd136   2.066       .  S
Zn134       O145   2.036       .  S
Zn134       O147   2.025       .  S
Zn134       O139   1.954       .  S
O135        C146   1.275       .  A
O135       Cd140   2.068       .  S
Cd136       O138   2.081   1_655  S
Cd136       O139   2.001       .  S
Cd137       O141   2.069   1_655  S
Cd137       O150   2.077       .  S
Cd137       O139   2.000       .  S
O138        C148   1.276       .  A
O139       Cd140   2.000       .  S
Cd140       O142   2.070       .  S
O141        C148   1.275       .  A
C143        C267   1.483       .  S
C143        O147   1.276       .  A
C144        C322   1.487       .  S
C146        C245   1.482       .  S
C148        C630   1.486       .  S
C149        C289   1.485       .  S
C149        O150   1.276       .  A
C151        N152   1.357   1_655  A
C151        N156   1.360       .  A
C151        C256   1.483       .  S
N152        C153   1.357       .  A
C153        N154   1.359       .  A
C153        C223   1.484       .  S
N154        C155   1.360   1_455  A
C155        N156   1.360       .  A
C155        C171   1.471       .  S
C157        N158   1.359       .  A
C157        N162   1.358       .  A
C157        C201   1.485       .  S
N158        C159   1.359       .  A
C159        N160   1.359       .  A
C159        C173   1.471       .  S
N160        C161   1.359       .  A
C161        N162   1.359       .  A
C161        C531   1.484       .  S
C163        N164   1.357       .  A
C163        N168   1.360       .  A
C163        C498   1.484       .  S
N164        C165   1.356       .  A
C165        N166   1.358       .  A
C165        C278   1.481       .  S
N166        C167   1.360       .  A
C167        N168   1.360       .  A
C167        C169   1.471       .  S
C169        C170   1.403       .  A
C169        C174   1.403       .  A
C170        C171   1.403       .  A
C170        H175   1.084       .  S
C171        C172   1.403       .  A
C172        C173   1.403       .  A
C172        H176   1.084       .  S
C173        C174   1.402       .  A
C174        H177   1.084       .  S
O178        C194   1.276       .  A
O178       Zn184   2.033       .  S
C179        C597   1.480       .  S
C179        O195   1.275       .  A
C179        O192   1.274       .  A
O180        C193   1.276       .  A
O180       Cd187   2.078       .  S
O181        C199   1.276       .  A
O181       Cd190   2.076       .  S
O182        C196   1.275       .  A
O182       Cd186   2.068       .  S
O183        C194   1.274       .  A
O183       Cd186   2.065       .  S
Zn184       O195   2.015       .  S
Zn184       O197   2.020       .  S
Zn184       O189   1.947       .  S
O185        C196   1.276       .  A
O185       Cd190   2.077       .  S
Cd186       O188   2.068       .  S
Cd186       O189   1.996       .  S
Cd187       O191   2.076       .  S
Cd187       O200   2.074       .  S
Cd187       O189   2.002       .  S
O188        C198   1.275       .  A
O189       Cd190   2.004       .  S
Cd190       O192   2.067       .  S
O191        C198   1.277       .  A
C193        C377   1.485       .  S
C193        O197   1.275       .  A
C194        C234   1.485       .  S
C196        C432   1.484       .  S
C198        C663   1.483       .  S
C199        C212   1.484       .  S
C199        O200   1.276       .  A
C201        C202   1.409       .  A
C201        C206   1.408       .  A
C202        C203   1.401       .  A
C202        H215   1.083       .  S
C203        C204   1.400       .  A
C203        H216   1.083       .  S
C204        C205   1.399       .  A
C204        C207   1.441       .  S
C205        C206   1.397       .  A
C205        H217   1.084       .  S
C206        H218   1.083       .  S
C207        C208   1.207       .  T
C208        C209   1.441       .  S
C209        C210   1.399       .  A
C209        C214   1.400       .  A
C210        C211   1.398       .  A
C210        H219   1.084       .  S
C211        C212   1.408       .  A
C211        H220   1.083       .  S
C212        C213   1.408       .  A
C213        C214   1.400       .  A
C213        H221   1.083       .  S
C214        H222   1.083       .  S
C223        C224   1.408       .  A
C223        C228   1.409       .  A
C224        C225   1.396       .  A
C224        H237   1.083       .  S
C225        C226   1.398       .  A
C225        H238   1.084       .  S
C226        C227   1.401       .  A
C226        C229   1.441       .  S
C227        C228   1.402       .  A
C227        H239   1.083       .  S
C228        H240   1.083       .  S
C229        C230   1.207       .  T
C230        C231   1.441       .  S
C231        C232   1.401       .  A
C231        C236   1.399       .  A
C232        C233   1.401       .  A
C232        H241   1.083       .  S
C233        C234   1.409       .  A
C233        H242   1.083       .  S
C234        C235   1.408       .  A
C235        C236   1.397       .  A
C235        H243   1.083       .  S
C236        H244   1.084       .  S
C245        C246   1.409       .  A
C245        C250   1.407       .  A
C246        C247   1.399       .  A
C246        H259   1.083       .  S
C247        C248   1.399       .  A
C247        H260   1.084       .  S
C248        C249   1.399       .  A
C248        C251   1.439       .  S
C249        C250   1.398       .  A
C249        H261   1.083   1_655  S
C250        H262   1.083       .  S
C251        C252   1.206       .  T
C252        C253   1.439   1_545  S
C253        C254   1.401       .  A
C253        C258   1.398   1_655  A
C254        C255   1.401       .  A
C254        H263   1.084       .  S
C255        C256   1.408       .  A
C255        H264   1.083       .  S
C256        C257   1.408   1_655  A
C257        C258   1.396       .  A
C257        H265   1.083       .  S
C258        H266   1.084       .  S
C267        C268   1.408       .  A
C267        C272   1.408       .  A
C268        C269   1.399       .  A
C268        H281   1.083       .  S
C269        C270   1.400       .  A
C269        H282   1.084       .  S
C270        C271   1.399       .  A
C270        C273   1.439       .  S
C271        C272   1.398       .  A
C271        H283   1.083       .  S
C272        H284   1.083       .  S
C273        C274   1.206       .  T
C274        C275   1.439       .  S
C275        C276   1.401       .  A
C275        C280   1.398       .  A
C276        C277   1.401       .  A
C276        H285   1.084       .  S
C277        C278   1.408       .  A
C277        H286   1.082       .  S
C278        C279   1.407       .  A
C279        C280   1.395       .  A
C279        H287   1.083       .  S
C280        H288   1.083       .  S
C289        C290   1.409       .  A
C289        C294   1.408       .  A
C290        C291   1.399       .  A
C290        H303   1.083       .  S
C291        C292   1.399       .  A
C291        H304   1.084       .  S
C292        C293   1.400       .  A
C292        C295   1.442       .  S
C293        C294   1.399       .  A
C293        H305   1.083       .  S
C294        H306   1.083       .  S
C295        C296   1.207       .  T
C296        C297   1.442       .  S
C297        C298   1.402       .  A
C297        C302   1.398       .  A
C298        C299   1.402       .  A
C298        H307   1.083       .  S
C299        C300   1.408       .  A
C299        H308   1.083       .  S
C300        C301   1.409       .  A
C301        C302   1.396       .  A
C301        H309   1.083       .  S
C302        H310   1.084       .  S
C311        C312   1.408       .  A
C311        C316   1.408   1_455  A
C312        C313   1.398       .  A
C312        H325   1.083       .  S
C313        C314   1.399   1_455  A
C313        H326   1.084       .  S
C314        C315   1.401       .  A
C314        C317   1.443       .  S
C315        C316   1.401       .  A
C315        H327   1.083       .  S
C316        H328   1.083       .  S
C317        C318   1.208       .  T
C318        C319   1.443       .  S
C319        C320   1.401       .  A
C319        C324   1.399       .  A
C320        C321   1.402   1_556  A
C320        H329   1.084       .  S
C321        C322   1.408       .  A
C321        H330   1.083       .  S
C322        C323   1.409       .  A
C323        C324   1.398   1_554  A
C323        H331   1.083       .  S
C324        H332   1.083   1_655  S
C333        C334   1.409       .  A
C333        C338   1.407       .  A
C334        C335   1.398       .  A
C334        H347   1.083       .  S
C335        C336   1.399       .  A
C335        H348   1.083       .  S
C336        C337   1.400       .  A
C336        C339   1.439       .  S
C337        C338   1.398       .  A
C337        H349   1.084       .  S
C338        H350   1.083       .  S
C339        C340   1.205       .  T
C340        C341   1.439       .  S
C341        C342   1.398       .  A
C341        C346   1.400       .  A
C342        C343   1.396       .  A
C342        H351   1.084       .  S
C343        C344   1.407       .  A
C343        H352   1.083       .  S
C344        C345   1.408       .  A
C345        C346   1.400       .  A
C345        H353   1.083       .  S
C346        H354   1.084       .  S
C355        C356   1.408       .  A
C355        C360   1.408       .  A
C356        C357   1.398       .  A
C356        H369   1.083       .  S
C357        C358   1.399       .  A
C357        H370   1.083       .  S
C358        C359   1.399       .  A
C358        C361   1.440       .  S
C359        C360   1.399       .  A
C359        H371   1.084       .  S
C360        H372   1.083       .  S
C361        C362   1.206       .  T
C362        C363   1.440       .  S
C363        C364   1.401       .  A
C363        C368   1.398       .  A
C364        C365   1.401       .  A
C364        H373   1.083       .  S
C365        C366   1.408       .  A
C365        H374   1.083       .  S
C366        C367   1.408       .  A
C367        C368   1.396       .  A
C367        H375   1.083       .  S
C368        H376   1.084       .  S
C377        C378   1.408       .  A
C377        C382   1.408       .  A
C378        C379   1.398       .  A
C378        H391   1.083       .  S
C379        C380   1.399       .  A
C379        H392   1.084       .  S
C380        C381   1.401       .  A
C380        C383   1.442       .  S
C381        C382   1.401       .  A
C381        H393   1.083       .  S
C382        H394   1.083       .  S
C383        C384   1.208       .  T
C384        C385   1.442       .  S
C385        C386   1.400       .  A
C385        C390   1.399       .  A
C386        C387   1.402       .  A
C386        H395   1.083       .  S
C387        C388   1.409       .  A
C387        H396   1.083       .  S
C388        C389   1.408       .  A
C389        C390   1.398       .  A
C389        H397   1.083       .  S
C390        H398   1.084       .  S
C399        C400   1.408       .  A
C399        C404   1.408       .  A
C400        C401   1.395       .  A
C400        H413   1.083       .  S
C401        C402   1.397       .  A
C401        H414   1.083       .  S
C402        C403   1.400       .  A
C402        C405   1.438       .  S
C403        C404   1.401       .  A
C403        H415   1.084       .  S
C404        H416   1.083       .  S
C405        C406   1.205       .  T
C406        C407   1.438       .  S
C407        C408   1.399       .  A
C407        C412   1.399       .  A
C408        C409   1.398       .  A
C408        H417   1.083       .  S
C409        C410   1.408       .  A
C409        H418   1.083       .  S
C410        C411   1.408       .  A
C411        C412   1.398       .  A
C411        H419   1.083       .  S
C412        H420   1.084       .  S
C421        C422   1.409       .  A
C421        C426   1.408       .  A
C422        C423   1.396       .  A
C422        H435   1.083       .  S
C423        C424   1.398       .  A
C423        H436   1.084       .  S
C424        C425   1.401       .  A
C424        C427   1.442       .  S
C425        C426   1.402       .  A
C425        H437   1.083       .  S
C426        H438   1.083       .  S
C427        C428   1.207       .  T
C428        C429   1.442       .  S
C429        C430   1.400       .  A
C429        C434   1.400       .  A
C430        C431   1.400   1_556  A
C430        H439   1.083       .  S
C431        C432   1.408       .  A
C431        H440   1.083       .  S
C432        C433   1.408       .  A
C433        C434   1.398   1_554  A
C433        H441   1.083       .  S
C434        H442   1.084       .  S
C443        C444   1.408       .  A
C443        C448   1.408       .  A
C444        C445   1.398       .  A
C444        H457   1.083       .  S
C445        C446   1.399       .  A
C445        H458   1.084       .  S
C446        C447   1.399       .  A
C446        C449   1.440       .  S
C447        C448   1.399       .  A
C447        H459   1.083       .  S
C448        H460   1.083       .  S
C449        C450   1.206   1_545  T
C450        C451   1.440       .  S
C451        C452   1.400       .  A
C451        C456   1.398       .  A
C452        C453   1.401       .  A
C452        H461   1.084       .  S
C453        C454   1.409       .  A
C453        H462   1.082       .  S
C454        C455   1.408       .  A
C455        C456   1.395       .  A
C455        H463   1.083       .  S
C456        H464   1.083       .  S
C465        C466   1.408       .  A
C465        C470   1.408       .  A
C466        C467   1.398       .  A
C466        H479   1.083       .  S
C467        C468   1.399       .  A
C467        H480   1.084       .  S
C468        C469   1.400       .  A
C468        C471   1.441       .  S
C469        C470   1.400       .  A
C469        H481   1.083       .  S
C470        H482   1.083       .  S
C471        C472   1.207       .  T
C472        C473   1.441       .  S
C473        C474   1.400       .  A
C473        C478   1.400       .  A
C474        C475   1.400       .  A
C474        H483   1.084       .  S
C475        C476   1.408       .  A
C475        H484   1.083       .  S
C476        C477   1.408       .  A
C477        C478   1.398       .  A
C477        H485   1.083       .  S
C478        H486   1.083       .  S
C487        C488   1.408       .  A
C487        C492   1.408       .  A
C488        C489   1.398       .  A
C488        H501   1.083       .  S
C489        C490   1.399       .  A
C489        H502   1.084       .  S
C490        C491   1.399       .  A
C490        C493   1.439       .  S
C491        C492   1.399       .  A
C491        H503   1.083       .  S
C492        H504   1.083       .  S
C493        C494   1.206       .  T
C494        C495   1.439       .  S
C495        C496   1.401       .  A
C495        C500   1.397       .  A
C496        C497   1.401       .  A
C496        H505   1.083       .  S
C497        C498   1.408   1_556  A
C497        H506   1.083   1_556  S
C498        C499   1.409   1_554  A
C499        C500   1.395       .  A
C499        H507   1.083       .  S
C500        H508   1.084       .  S
C509        C510   1.407       .  A
C509        C514   1.408       .  A
C510        C511   1.397       .  A
C510        H523   1.083       .  S
C511        C512   1.399       .  A
C511        H524   1.084       .  S
C512        C513   1.399       .  A
C512        C515   1.438       .  S
C513        C514   1.399       .  A
C513        H525   1.083       .  S
C514        H526   1.083       .  S
C515        C516   1.205   1_565  T
C516        C517   1.438       .  S
C517        C518   1.398       .  A
C517        C522   1.400       .  A
C518        C519   1.395       .  A
C518        H527   1.084       .  S
C519        C520   1.408       .  A
C519        H528   1.083       .  S
C520        C521   1.409       .  A
C521        C522   1.400       .  A
C521        H529   1.083       .  S
C522        H530   1.083       .  S
C531        C532   1.409       .  A
C531        C536   1.408       .  A
C532        C533   1.401       .  A
C532        H545   1.083       .  S
C533        C534   1.400       .  A
C533        H546   1.083       .  S
C534        C535   1.398       .  A
C534        C537   1.440       .  S
C535        C536   1.396       .  A
C535        H547   1.084       .  S
C536        H548   1.083       .  S
C537        C538   1.206       .  T
C538        C539   1.440       .  S
C539        C540   1.399       .  A
C539        C544   1.400       .  A
C540        C541   1.397       .  A
C540        H549   1.084       .  S
C541        C542   1.408       .  A
C541        H550   1.083       .  S
C542        C543   1.409       .  A
C543        C544   1.400       .  A
C543        H551   1.083       .  S
C544        H552   1.083       .  S
C553        C554   1.408       .  A
C553        C558   1.407       .  A
C554        C555   1.399       .  A
C554        H567   1.083       .  S
C555        C556   1.399       .  A
C555        H568   1.084       .  S
C556        C557   1.399       .  A
C556        C559   1.439       .  S
C557        C558   1.397       .  A
C557        H569   1.083       .  S
C558        H570   1.083       .  S
C559        C560   1.205       .  T
C560        C561   1.439       .  S
C561        C562   1.398       .  A
C561        C566   1.400       .  A
C562        C563   1.396       .  A
C562        H571   1.084       .  S
C563        C564   1.408       .  A
C563        H572   1.083       .  S
C564        C565   1.408       .  A
C565        C566   1.400       .  A
C565        H573   1.083       .  S
C566        H574   1.083       .  S
C575        C576   1.408       .  A
C575        C580   1.409       .  A
C576        C577   1.402       .  A
C576        H589   1.083       .  S
C577        C578   1.401       .  A
C577        H590   1.083       .  S
C578        C579   1.398       .  A
C578        C581   1.440       .  S
C579        C580   1.395       .  A
C579        H591   1.084       .  S
C580        H592   1.083       .  S
C581        C582   1.206       .  T
C582        C583   1.441       .  S
C583        C584   1.399       .  A
C583        C588   1.400       .  A
C584        C585   1.397       .  A
C584        H593   1.084       .  S
C585        C586   1.408       .  A
C585        H594   1.083       .  S
C586        C587   1.408       .  A
C587        C588   1.401       .  A
C587        H595   1.083       .  S
C588        H596   1.083       .  S
C597        C598   1.407       .  A
C597        C602   1.408       .  A
C598        C599   1.396       .  A
C598        H611   1.083       .  S
C599        C600   1.399       .  A
C599        H612   1.084       .  S
C600        C601   1.399       .  A
C600        C603   1.438       .  S
C601        C602   1.399       .  A
C601        H613   1.083       .  S
C602        H614   1.083       .  S
C603        C604   1.205       .  T
C604        C605   1.438       .  S
C605        C606   1.399       .  A
C605        C610   1.398       .  A
C606        C607   1.400       .  A
C606        H615   1.084       .  S
C607        C608   1.408       .  A
C607        H616   1.083       .  S
C608        C609   1.407       .  A
C609        C610   1.396       .  A
C609        H617   1.083       .  S
C610        H618   1.083       .  S
C619        C620   1.408       .  A
C619        C624   1.409       .  A
C620        C621   1.401       .  A
C620        H633   1.083       .  S
C621        C622   1.401       .  A
C621        H634   1.083       .  S
C622        C623   1.399       .  A
C622        C625   1.442       .  S
C623        C624   1.397       .  A
C623        H635   1.084       .  S
C624        H636   1.083       .  S
C625        C626   1.208       .  T
C626        C627   1.442       .  S
C627        C628   1.399       .  A
C627        C632   1.401       .  A
C628        C629   1.398       .  A
C628        H637   1.084       .  S
C629        C630   1.408       .  A
C629        H638   1.083       .  S
C630        C631   1.409       .  A
C631        C632   1.402       .  A
C631        H639   1.083       .  S
C632        H640   1.083       .  S
C641        C642   1.408       .  A
C641        C646   1.409       .  A
C642        C643   1.397       .  A
C642        H655   1.083       .  S
C643        C644   1.399       .  A
C643        H656   1.083       .  S
C644        C645   1.400       .  A
C644        C647   1.441       .  S
C645        C646   1.400       .  A
C645        H657   1.084       .  S
C646        H658   1.083       .  S
C647        C648   1.206       .  T
C648        C649   1.441       .  S
C649        C650   1.401       .  A
C649        C654   1.398       .  A
C650        C651   1.402       .  A
C650        H659   1.083       .  S
C651        C652   1.408       .  A
C651        H660   1.083       .  S
C652        C653   1.409       .  A
C653        C654   1.396       .  A
C653        H661   1.082       .  S
C654        H662   1.084       .  S
C663        C664   1.409       .  A
C663        C668   1.407       .  A
C664        C665   1.399       .  A
C664        H677   1.083       .  S
C665        C666   1.399       .  A
C665        H678   1.083       .  S
C666        C667   1.399       .  A
C666        C669   1.439   1_565  S
C667        C668   1.398       .  A
C667        H679   1.084       .  S
C668        H680   1.083       .  S
C669        C670   1.205       .  T
C670        C671   1.438       .  S
C671        C672   1.400       .  A
C671        C676   1.398       .  A
C672        C673   1.401       .  A
C672        H681   1.084       .  S
C673        C674   1.409       .  A
C673        H682   1.083       .  S
C674        C675   1.407       .  A
C675        C676   1.395       .  A
C675        H683   1.083       .  S
C676        H684   1.084       .  S
C685        C686   1.407       .  A
C685        C690   1.409       .  A
C686        C687   1.400       .  A
C686        H699   1.083       .  S
C687        C688   1.400       .  A
C687        H700   1.083       .  S
C688        C689   1.400       .  A
C688        C691   1.443       .  S
C689        C690   1.400       .  A
C689        H701   1.084       .  S
C690        H702   1.083       .  S
C691        C692   1.208       .  T
C692        C693   1.443       .  S
C693        C694   1.401       .  A
C693        C698   1.399       .  A
C694        C695   1.402       .  A
C694        H703   1.083       .  S
C695        C696   1.409       .  A
C695        H704   1.083       .  S
C696        C697   1.408       .  A
C697        C698   1.398       .  A
C697        H705   1.083       .  S
C698        H706   1.083       .  S
C707        C708   1.408       .  A
C707        C712   1.408       .  A
C708        C709   1.397       .  A
C708        H721   1.083       .  S
C709        C710   1.398       .  A
C709        H722   1.083       .  S
C710        C711   1.402       .  A
C710        C713   1.443       .  S
C711        C712   1.403       .  A
C711        H723   1.084       .  S
C712        H724   1.083       .  S
C713        C714   1.208       .  T
C714        C715   1.443       .  S
C715        C716   1.401       .  A
C715        C720   1.399       .  A
C716        C717   1.402   1_556  A
C716        H725   1.083       .  S
C717        C718   1.409       .  A
C717        H726   1.083       .  S
C718        C719   1.409       .  A
C719        C720   1.398   1_554  A
C719        H727   1.083       .  S
C720        H728   1.084       .  S
