geometry optimzed in LAMMPS
_audit_creation_date              2020-11-30 
_audit_creation_method            'lammps2cif' 
_symmetry_space_group_name_H-M    'P1' 
_symmetry_Int_Tables_number       1 
_symmetry_cell_setting            triclinic 
loop_ 
_symmetry_equiv_pos_as_xyz 
  x,y,z 
_cell_length_a                    58.66704994 
_cell_length_b                    58.897143601332296 
_cell_length_c                    29.248167542539456 
_cell_angle_alpha                 90.47142921815175 
_cell_angle_beta                  90.68182267726968 
_cell_angle_gamma                 89.14901107217823 
loop_ 
_atom_site_label 
_atom_site_type_symbol 
_atom_site_fract_x 
_atom_site_fract_y 
_atom_site_fract_z 
_atom_site_charge 
N1          N  0.50126420  0.95907906  0.24580116    -0.27100
N2          N  0.50153848  0.97222733  0.20945419    -0.35000
C3          C  0.50839933  0.95993226  0.17325665     0.01200
C4          C  0.51246825  0.93786539  0.18724094     0.07200
C5          C  0.50775583  0.93786304  0.23351954    -0.05900
H6          H  0.50909755  0.96636330  0.13876945     0.07900
H7          H  0.50832907  0.92345149  0.25621823     0.09100
Cu8        Cu  0.48927066  0.00526248  0.20844293     0.44200
Cu9        Cu  0.49097844  0.97119780  0.30904136     0.42000
Cu10       Cu  0.47006818  0.03088395  0.31203404     0.43900
N11         N  0.47079832  0.03536022  0.21041741    -0.34500
N12         N  0.46376439  0.04525297  0.24852521    -0.28800
C13         C  0.44979343  0.06284621  0.23772882    -0.04900
C14         C  0.44795315  0.06379984  0.19057005     0.07300
C15         C  0.46135683  0.04609757  0.17447282     0.01100
H16         H  0.44022709  0.07287556  0.26223223     0.08800
H17         H  0.46294532  0.04051631  0.13930307     0.07900
N18         N  0.47413812  0.01016346  0.36871121    -0.36000
N19         N  0.48114300  0.98869525  0.36747661    -0.28200
C20         C  0.48051075  0.98017205  0.40991119    -0.03400
C21         C  0.47247438  0.99693877  0.43906297     0.05200
C22         C  0.46892281  0.01581482  0.41199324     0.03300
H23         H  0.48512112  0.96288837  0.41873415     0.08400
H24         H  0.46306933  0.03248033  0.42272925     0.07200
N25         N  0.41381370  0.01613381  0.81822268    -0.27100
N26         N  0.41091563  0.00179465  0.85208102    -0.35000
C27         C  0.40156105  0.01290744  0.88756621     0.01200
C28         C  0.39855144  0.03544301  0.87580323     0.07200
C29         C  0.40642818  0.03691802  0.83145542    -0.05900
H30         H  0.39869336  0.00540022  0.92059950     0.07900
H31         H  0.40788581  0.05213578  0.81129856     0.09100
Cu32       Cu  0.42368650  0.96895752  0.85239370     0.44200
Cu33       Cu  0.42978915  0.00646449  0.75801199     0.42000
Cu34       Cu  0.45000011  0.94685051  0.75182006     0.43900
N35         N  0.44271101  0.93919182  0.85122627    -0.34500
N36         N  0.45200932  0.93053547  0.81392359    -0.28800
C37         C  0.46555355  0.91279611  0.82551120    -0.04900
C38         C  0.46472890  0.91038130  0.87237769     0.07300
C39         C  0.45028796  0.92745830  0.88761443     0.01100
H40         H  0.47669755  0.90374351  0.80221904     0.08800
H41         H  0.44676434  0.93197333  0.92278740     0.07900
N42         N  0.45152289  0.96974436  0.69888682    -0.36000
N43         N  0.44491288  0.99129528  0.70138805    -0.28200
C44         C  0.44863529  0.00114773  0.66093118    -0.03400
C45         C  0.45829490  0.98513968  0.63194362     0.05200
C46         C  0.45953993  0.96534654  0.65686329     0.03300
H47         H  0.44412742  0.01854272  0.65282136     0.08400
H48         H  0.46496547  0.94872275  0.64499351     0.07200
N49         N  0.93800879  0.43503913  0.26070453    -0.27100
N50         N  0.95209509  0.43098551  0.22659746    -0.35000
C51         C  0.94002094  0.42652357  0.18851035     0.01200
C52         C  0.91710984  0.42796227  0.19864100     0.07200
C53         C  0.91637542  0.43326918  0.24492711    -0.05900
H54         H  0.94745741  0.42419242  0.15511444     0.07900
H55         H  0.90134905  0.43715621  0.26477348     0.09100
Cu56       Cu  0.98664525  0.43688219  0.22894603     0.44200
Cu57       Cu  0.94987199  0.44616217  0.32428128     0.42000
Cu58       Cu  0.00971304  0.46624210  0.32435474     0.43900
N59         N  0.01830785  0.45160129  0.22800825    -0.34500
N60         N  0.02685947  0.46318133  0.26286063    -0.28800
C61         C  0.04555018  0.47407996  0.24891526    -0.04900
C62         C  0.04892236  0.46884082  0.20322087     0.07300
C63         C  0.03119395  0.45478551  0.19106817     0.01100
H64         H  0.05472981  0.48643580  0.26924394     0.08800
H65         H  0.02672415  0.44913259  0.15688049     0.07900
N66         N  0.98846056  0.46659715  0.38069855    -0.36000
N67         N  0.96723975  0.45922720  0.38097206    -0.28200
C68         C  0.95865011  0.46259095  0.42297454    -0.03400
C69         C  0.97527030  0.47226670  0.45051270     0.05200
C70         C  0.99379754  0.47487752  0.42237508     0.03300
H71         H  0.94138138  0.45871951  0.43255318     0.08400
H72         H  0.00965159  0.48313806  0.43073166     0.07200
N73         N  0.99836071  0.53971597  0.82741119    -0.27100
N74         N  0.98465011  0.54206505  0.86270214    -0.35000
C75         C  0.99713012  0.54515892  0.90088954     0.01200
C76         C  0.01989841  0.54448485  0.88946126     0.07200
C77         C  0.02010234  0.54118893  0.84245143    -0.05900
H78         H  0.99015308  0.54553044  0.93495378     0.07900
H79         H  0.03489312  0.53810287  0.82142355     0.09100
Cu80       Cu  0.95047359  0.53452471  0.86096581     0.44200
Cu81       Cu  0.98645090  0.53028000  0.76277049     0.42000
Cu82       Cu  0.92723604  0.50948954  0.76046476     0.43900
N83         N  0.91993351  0.51766452  0.86009383    -0.34500
N84         N  0.91105424  0.50822006  0.82299742    -0.28800
C85         C  0.89332529  0.49536713  0.83509831    -0.04900
C86         C  0.89118876  0.49677494  0.88210600     0.07300
C87         C  0.90840646  0.51089539  0.89676776     0.01100
H88         H  0.88426947  0.48407101  0.81215218     0.08800
H89         H  0.91344240  0.51436579  0.93180542     0.07900
N90         N  0.94828174  0.51088026  0.70408490    -0.36000
N91         N  0.96947321  0.51831629  0.70463293    -0.28200
C92         C  0.97823779  0.51559770  0.66259644    -0.03400
C93         C  0.96172822  0.50629806  0.63421655     0.05200
C94         C  0.94310505  0.50323557  0.66186153     0.03300
H95         H  0.99558077  0.51950780  0.65361542     0.08400
H96         H  0.92736701  0.49491594  0.65282397     0.07200
N97         N  0.41880430  0.10340286  0.11558250    -0.27100
N98         N  0.40919248  0.08411765  0.10333459    -0.35000
C99         C  0.41661987  0.06757801  0.13127578     0.01200
C100        C  0.43141808  0.07686090  0.16309210     0.07200
C101        C  0.43247379  0.09964844  0.15220471    -0.05900
H102        H  0.41337301  0.04971225  0.12588658     0.07900
H103        H  0.44416443  0.11192763  0.16647979     0.09100
Cu104      Cu  0.39238446  0.07935298  0.04175859     0.44200
Cu105      Cu  0.41667393  0.13194502  0.07455769     0.42000
Cu106      Cu  0.39765841  0.12201340  0.95564205     0.43900
N107        N  0.38886926  0.07279172  0.97270867    -0.34500
N108        N  0.39182224  0.08805206  0.94053032    -0.28800
C109        C  0.39395452  0.07725045  0.89996693    -0.04900
C110        C  0.39240993  0.05410855  0.90730752     0.07300
C111        C  0.38897481  0.05199515  0.95370555     0.01100
H112        H  0.39834692  0.08545337  0.86838092     0.08800
H113        H  0.38896834  0.03641280  0.97304380     0.07900
N114        N  0.40649348  0.15350981  0.98248255    -0.36000
N115        N  0.41329418  0.15697331  0.02527011    -0.28200
C116        C  0.41853870  0.17896364  0.03082446    -0.03400
C117        C  0.41464976  0.18991235  0.98984297     0.05200
C118        C  0.40732205  0.17325424  0.95975606     0.03300
H119        H  0.42553609  0.18621826  0.06195045     0.08400
H120        H  0.40337493  0.17523589  0.92377375     0.07200
N121        N  0.08723392  0.48825320  0.11611256    -0.27100
N122        N  0.06927572  0.50164303  0.10905121    -0.35000
C123        C  0.05381563  0.49791317  0.14149058     0.01200
C124        C  0.06247028  0.48159835  0.17076018     0.07200
C125        C  0.08361269  0.47562507  0.15350662    -0.05900
H126        H  0.03677367  0.50518014  0.14158799     0.07900
H127        H  0.09472568  0.46198770  0.16515577     0.09100
Cu128      Cu  0.06402215  0.52091372  0.05100606     0.44200
Cu129      Cu  0.11397268  0.48583051  0.07021609     0.42000
Cu130      Cu  0.10379284  0.51516267  0.96086717     0.43900
N131        N  0.05755227  0.53275208  0.98571394    -0.34500
N132        N  0.07200765  0.53018883  0.95174427    -0.28800
C133        C  0.06138306  0.53573691  0.91224763    -0.04900
C134        C  0.03909855  0.54195075  0.92197667     0.07300
C135        C  0.03736842  0.54001938  0.96892854     0.01100
H136        H  0.06875046  0.53353491  0.87874387     0.08800
H137        H  0.02204451  0.54170187  0.98895573     0.07900
N138        N  0.13372012  0.49823056  0.97858430    -0.36000
N139        N  0.13743216  0.48753090  0.01762891    -0.28200
C140        C  0.15922547  0.48014815  0.01897816    -0.03400
C141        C  0.16964574  0.48626918  0.97875284     0.05200
C142        C  0.15301457  0.49796797  0.95431054     0.03300
H143        H  0.16731600  0.47218502  0.04829244     0.08400
H144        H  0.15520847  0.50728710  0.92300734     0.07200
N145        N  0.49099723  0.86954099  0.94852820    -0.27100
N146        N  0.50107901  0.88840224  0.96189832    -0.35000
C147        C  0.49462796  0.90538436  0.93414124     0.01200
C148        C  0.48008092  0.89676693  0.90118437     0.07200
C149        C  0.47806329  0.87398424  0.91121674    -0.05900
H150        H  0.49847044  0.92308085  0.94015583     0.07900
H151        H  0.46627058  0.86218357  0.89566100     0.09100
Cu152      Cu  0.51750244  0.89208665  0.02390372     0.44200
Cu153      Cu  0.49140370  0.84073181  0.98879388     0.42000
Cu154      Cu  0.50879043  0.85063135  0.10952278     0.43900
N155        N  0.52072390  0.89896201  0.09259296    -0.34500
N156        N  0.51642812  0.88422821  0.12505674    -0.28800
C157        C  0.51460441  0.89553100  0.16519125    -0.04900
C158        C  0.51768048  0.91844868  0.15700402     0.07300
C159        C  0.52171533  0.91986941  0.11076516     0.01100
H160        H  0.50934490  0.88797300  0.19688100     0.08800
H161        H  0.52298033  0.93519356  0.09086569     0.07900
N162        N  0.49998114  0.81928398  0.08157897    -0.36000
N163        N  0.49357839  0.81583352  0.03854424    -0.28200
C164        C  0.48927268  0.79366051  0.03233908    -0.03400
C165        C  0.49293985  0.78261821  0.07337314     0.05200
C166        C  0.49999636  0.79933952  0.10367281     0.03300
H167        H  0.48393049  0.78609349  0.00020887     0.08400
H168        H  0.50547407  0.79719819  0.13878140     0.07200
N169        N  0.85210166  0.46815139  0.95658179    -0.27100
N170        N  0.87187458  0.45957243  0.97059389    -0.35000
C171        C  0.88850580  0.46743244  0.94420732     0.01200
C172        C  0.87873313  0.48132964  0.91144351     0.07200
C173        C  0.85559979  0.48148593  0.92015204    -0.05900
H174        H  0.90652560  0.46454208  0.95043387     0.07900
H175        H  0.84265120  0.49205389  0.90400561     0.09100
Cu176      Cu  0.87613669  0.44169483  0.03041491     0.44200
Cu177      Cu  0.82281049  0.46491159  0.99490521     0.42000
Cu178      Cu  0.83165614  0.44397826  0.11330991     0.43900
N179        N  0.88095670  0.43289498  0.09787296    -0.34500
N180        N  0.86520294  0.43481801  0.12962685    -0.28800
C181        C  0.87526345  0.43210930  0.17103255    -0.04900
C182        C  0.89840586  0.42827206  0.16454804     0.07300
C183        C  0.90124851  0.42873525  0.11777210     0.01100
H184        H  0.86665036  0.43413355  0.20334012     0.08800
H185        H  0.91718233  0.42803694  0.09955181     0.07900
N186        N  0.80050299  0.45500595  0.08576485    -0.36000
N187        N  0.79746904  0.46255227  0.04357627    -0.28200
C188        C  0.77535784  0.46811256  0.03729569    -0.03400
C189        C  0.76386954  0.46412726  0.07741367     0.05200
C190        C  0.78030741  0.45546549  0.10715368     0.03300
H191        H  0.76807049  0.47427581  0.00550275     0.08400
H192        H  0.77772674  0.44892983  0.14107021     0.07200
N193        N  0.36407949  0.45753374  0.88942857    -0.27100
N194        N  0.38161744  0.47129797  0.88751958    -0.35000
C195        C  0.40066697  0.45907002  0.87975996     0.01200
C196        C  0.39502492  0.43640452  0.87703996     0.07200
C197        C  0.37161830  0.43601080  0.88304727    -0.05900
H198        H  0.41761678  0.46605475  0.88001286     0.07900
H199        H  0.36113716  0.42114333  0.88586142     0.09100
Cu200      Cu  0.38039297  0.50507735  0.90670310     0.44200
Cu201      Cu  0.33163609  0.46905512  0.90724165     0.42000
Cu202      Cu  0.32814538  0.52937435  0.94405983     0.43900
N203        N  0.37855817  0.53514223  0.94331122    -0.34500
N204        N  0.35923763  0.54456621  0.95707964    -0.28800
C205        C  0.36398519  0.56165531  0.98648471    -0.04900
C206        C  0.38743173  0.56277576  0.99152713     0.07300
C207        C  0.39606067  0.54566300  0.96390684     0.01100
H208        H  0.35138643  0.57084644  0.00634594     0.08800
H209        H  0.41365466  0.53999363  0.96203493     0.07900
N210        N  0.30065023  0.50771648  0.93864784    -0.36000
N211        N  0.30186283  0.48597332  0.92693482    -0.28200
C212        C  0.28104311  0.47693344  0.93082525    -0.03400
C213        C  0.26612993  0.49367450  0.94623147     0.05200
C214        C  0.27908611  0.51303944  0.94989991     0.03300
H215        H  0.27714078  0.45932663  0.92390692     0.08400
H216        H  0.27339456  0.52989127  0.95964048     0.07200
N217        N  0.42656679  0.38320307  0.89159838    -0.27100
N218        N  0.44331461  0.39793798  0.89132651    -0.35000
C219        C  0.43470791  0.41870600  0.88263313     0.01200
C220        C  0.41131852  0.41712804  0.87767359     0.07200
C221        C  0.40671265  0.39430946  0.88328136    -0.05900
H222        H  0.44454226  0.43409649  0.88421823     0.07900
H223        H  0.39009825  0.38665862  0.88473127     0.09100
Cu224      Cu  0.47576141  0.39075871  0.91562038     0.44200
Cu225      Cu  0.43178612  0.34967246  0.91108624     0.42000
Cu226      Cu  0.48690467  0.33660760  0.96734713     0.43900
N227        N  0.50271883  0.38452556  0.95996774    -0.34500
N228        N  0.50707831  0.36469403  0.97926391    -0.28800
C229        C  0.52332071  0.36738972  0.01174661    -0.04900
C230        C  0.52918092  0.39004075  0.01298292     0.07300
C231        C  0.51572101  0.40038468  0.97999739     0.01100
H232        H  0.52879140  0.35436718  0.03551878     0.08800
H233        H  0.51417746  0.41840773  0.97354141     0.07900
N234        N  0.46161167  0.31307108  0.95447402    -0.36000
N235        N  0.44173119  0.31777894  0.93456107    -0.28200
C236        C  0.42925085  0.29880607  0.93289713    -0.03400
C237        C  0.44198392  0.28134132  0.95208986     0.05200
C238        C  0.46226635  0.29100827  0.96590956     0.03300
H239        H  0.41213595  0.29782306  0.91893111     0.08400
H240        H  0.47626682  0.28278603  0.98397718     0.07200
N241        N  0.56833502  0.50784266  0.14549652    -0.27100
N242        N  0.55037639  0.49459199  0.14691673    -0.35000
C243        C  0.53152652  0.50734491  0.15265176     0.01200
C244        C  0.53760946  0.52989061  0.15455005     0.07200
C245        C  0.56117118  0.52965653  0.15014319    -0.05900
H246        H  0.51444347  0.50068081  0.15196971     0.07900
H247        H  0.57207163  0.54424021  0.14774953     0.09100
Cu248      Cu  0.55052199  0.46054454  0.13034323     0.44200
Cu249      Cu  0.60092563  0.49470782  0.13177989     0.42000
Cu250      Cu  0.60173125  0.43352732  0.09855529     0.43900
N251        N  0.55122013  0.42991831  0.09587441    -0.34500
N252        N  0.57031523  0.41943893  0.08402368    -0.28800
C253        C  0.56528616  0.40208326  0.05551238    -0.04900
C254        C  0.54188682  0.40189500  0.04910185     0.07300
C255        C  0.53356301  0.41983491  0.07490164     0.01100
H256        H  0.57777959  0.39195674  0.03722812     0.08800
H257        H  0.51619145  0.42625466  0.07531498     0.07900
N258        N  0.63027161  0.45365209  0.10556733    -0.36000
N259        N  0.63023066  0.47557987  0.11598816    -0.28200
C260        C  0.65177435  0.48309969  0.11358316    -0.03400
C261        C  0.66590361  0.46516630  0.10043731     0.05200
C262        C  0.65168138  0.44672747  0.09667291     0.03300
H263        H  0.65673507  0.50047758  0.11991601     0.08400
H264        H  0.65638703  0.42940690  0.08843213     0.07200
N265        N  0.50558709  0.58323641  0.14070083    -0.27100
N266        N  0.48910140  0.56820578  0.14110544    -0.35000
C267        C  0.49803206  0.54752471  0.14889765     0.01200
C268        C  0.52140804  0.54930526  0.15318307     0.07200
C269        C  0.52569323  0.57227703  0.14803148    -0.05900
H270        H  0.48828329  0.53207499  0.14779426     0.07900
H271        H  0.54219528  0.58018313  0.14697447     0.09100
Cu272      Cu  0.45608115  0.57460037  0.11967156     0.44200
Cu273      Cu  0.49885417  0.61719143  0.12450684     0.42000
Cu274      Cu  0.43993026  0.62867803  0.07929534     0.43900
N275        N  0.42752289  0.57989231  0.07928277    -0.34500
N276        N  0.42106957  0.60003780  0.06399971    -0.28800
C277        C  0.40422004  0.59733376  0.03272990    -0.04900
C278        C  0.40021646  0.57431287  0.02806658     0.07300
C279        C  0.41535368  0.56382512  0.05785498     0.01100
H280        H  0.39708066  0.61080874  0.01183511     0.08800
H281        H  0.41853559  0.54576181  0.06106411     0.07900
N282        N  0.46457913  0.65303009  0.09123591    -0.36000
N283        N  0.48566086  0.64909541  0.10631809    -0.28200
C284        C  0.49686670  0.66890299  0.10776006    -0.03400
C285        C  0.48219422  0.68592300  0.09263438     0.05200
C286        C  0.46188226  0.67532165  0.08294461     0.03300
H287        H  0.51433080  0.67077037  0.11930877     0.08400
H288        H  0.44632883  0.68319848  0.07015520     0.07200
C289        C  0.72499160  0.45559594  0.05008275    -0.05600
C290        C  0.73885057  0.46555813  0.08382211     0.00300
C291        C  0.72855303  0.47727186  0.12094080    -0.08300
C292        C  0.70464957  0.47674378  0.12501387    -0.05700
C293        C  0.69085665  0.46565170  0.09249787     0.00300
C294        C  0.70110152  0.45587718  0.05306426    -0.08200
C295        C  0.68722746  0.44654459  0.01310548     0.62200
H296        H  0.73309761  0.44730595  0.02119673     0.12900
H297        H  0.69653042  0.48482876  0.15409298     0.12900
C298        C  0.74248288  0.49113995  0.15486231     0.62400
F299        F  0.70011031  0.44494811  0.97380304    -0.22700
F300        F  0.66876727  0.46069855  0.00364682    -0.20100
F301        F  0.67969377  0.42507431  0.02311659    -0.19700
F302        F  0.75677008  0.50541957  0.13164875    -0.19800
F303        F  0.75534808  0.47694108  0.18259800    -0.20100
F304        F  0.72871691  0.50447408  0.18267981    -0.22800
C305        C  0.50244462  0.74308897  0.05130960    -0.05600
C306        C  0.49096051  0.75793029  0.08130912     0.00300
C307        C  0.47681297  0.74894916  0.11554486    -0.08300
C308        C  0.47478456  0.72523091  0.11851617    -0.05700
C309        C  0.48650860  0.71046322  0.08891901     0.00300
C310        C  0.50054345  0.71937861  0.05462922    -0.08200
C311        C  0.51284946  0.70393343  0.02091390     0.62200
H312        H  0.51293497  0.75029770  0.02503863     0.12900
H313        H  0.46395994  0.71793358  0.14413182     0.12900
C314        C  0.46340147  0.76416260  0.14802884     0.62400
F315        F  0.52445986  0.71612901  0.98854567    -0.22700
F316        F  0.49728626  0.69034416  0.99821573    -0.20100
F317        F  0.52849707  0.69035213  0.04396453    -0.19700
F318        F  0.45145603  0.78064528  0.12382898    -0.19800
F319        F  0.47813846  0.77441808  0.17873737    -0.20100
F320        F  0.44781608  0.75202207  0.17282089    -0.22800
C321        C  0.20832707  0.49637584  0.00402882    -0.05600
C322        C  0.19441267  0.48650828  0.97033576     0.00300
C323        C  0.20430922  0.47748196  0.93006246    -0.08300
C324        C  0.22784345  0.48023922  0.92350563    -0.05700
C325        C  0.24161185  0.49116982  0.95630807     0.00300
C326        C  0.23190861  0.49850972  0.99824066    -0.08200
C327        C  0.24617645  0.50778868  0.03766469     0.62200
H328        H  0.20044356  0.50281951  0.03493426     0.12900
H329        H  0.23568375  0.47401626  0.89239246     0.12900
C330        C  0.19035087  0.46412331  0.89534626     0.62400
F331        F  0.23419258  0.50805782  0.07818545    -0.22700
F332        F  0.25244639  0.52978801  0.02867889    -0.20100
F333        F  0.26545892  0.49435819  0.04427239    -0.19700
F334        F  0.17441555  0.47813669  0.87429172    -0.19800
F335        F  0.17927192  0.44676892  0.91714675    -0.20100
F336        F  0.20388644  0.45450896  0.86167481    -0.21600
C337        C  0.41628069  0.25433679  0.98872688    -0.05600
C338        C  0.43468080  0.25782098  0.95956908     0.00300
C339        C  0.44542077  0.23904498  0.93778263    -0.08300
C340        C  0.43808109  0.21706397  0.94801874    -0.05700
C341        C  0.42043550  0.21352694  0.97894272     0.00300
C342        C  0.40888049  0.23234977  0.99881739    -0.08200
C343        C  0.38852469  0.22919471  0.02956163     0.62200
H344        H  0.40800017  0.26901721  0.00415501     0.12900
H345        H  0.44635618  0.20238598  0.93257420     0.12900
C346        C  0.46408436  0.24227625  0.90302499     0.62400
F347        F  0.37814055  0.24971665  0.04081676    -0.22700
F348        F  0.39540204  0.21876153  0.06965289    -0.20100
F349        F  0.37252161  0.21587097  0.00746037    -0.19700
F350        F  0.48321074  0.25106952  0.92425733    -0.19800
F351        F  0.45650842  0.25705759  0.86941221    -0.20100
F352        F  0.47032641  0.22200033  0.88206019    -0.22800
C353        C  0.95459531  0.49634092  0.50611128    -0.05600
C354        C  0.97248925  0.48084293  0.49782592     0.00300
C355        C  0.98677307  0.47365081  0.53451808    -0.08300
C356        C  0.98266048  0.48251473  0.57851038    -0.05700
C357        C  0.96475376  0.49799071  0.58679142     0.00300
C358        C  0.95057051  0.50530141  0.55005955    -0.08200
C359        C  0.93186673  0.52309099  0.55671803     0.62200
H360        H  0.94388368  0.50156254  0.47755020     0.12900
H361        H  0.99332652  0.47725410  0.60710739     0.12900
C362        C  0.00575984  0.45617199  0.52777003     0.62400
F363        F  0.92242771  0.53005777  0.51545132    -0.22700
F364        F  0.94069013  0.54198387  0.57860905    -0.20100
F365        F  0.91460205  0.51434613  0.58264810    -0.19700
F366        F  0.02276961  0.46519823  0.50157280    -0.19800
F367        F  0.99723089  0.43707288  0.50614223    -0.20100
F368        F  0.01547789  0.44946734  0.56896163    -0.22800
C369        C  0.44420883  0.99482466  0.55504174    -0.05600
C370        C  0.46260433  0.98786366  0.58277602     0.00300
C371        C  0.48437547  0.98420543  0.56341613    -0.08300
C372        C  0.48686773  0.98755658  0.51620307    -0.05700
C373        C  0.46847148  0.99465961  0.48849383     0.00300
C374        C  0.44666202  0.99811708  0.50788721    -0.08200
C375        C  0.42589480  0.00455861  0.47902746     0.62200
H376        H  0.42774850  0.99753007  0.57076542     0.12900
H377        H  0.50330426  0.98477106  0.50043723     0.12900
C378        C  0.50499041  0.97757695  0.59254360     0.62400
F379        F  0.40592776  0.00320280  0.50356095    -0.22700
F380        F  0.42407975  0.99005665  0.44175688    -0.20100
F381        F  0.42777059  0.02661510  0.46403996    -0.19700
F382        F  0.50220595  0.95614679  0.61025148    -0.19800
F383        F  0.50760005  0.99301734  0.62804452    -0.20100
F384        F  0.52487383  0.97724238  0.56749940    -0.22800
loop_ 
_geom_bond_atom_site_label_1 
_geom_bond_atom_site_label_2 
_geom_bond_distance 
_geom_bond_site_symmetry_2 
_ccdc_geom_bond_type 
N1            N2   1.321       .  A
N1            C5   1.348       .  A
N1           Cu9   2.070       .  S
N2            C3   1.340       .  A
N2           Cu8   2.065   1_565  S
C3            C4   1.382       .  A
C3            H6   1.082       .  S
C4            C5   1.385       .  A
C4          C158   1.471       .  S
C5            H7   1.082       .  S
Cu8          N11   2.065       .  S
Cu9          N19   2.072       .  S
Cu10         N12   2.075       .  S
Cu10         N18   2.076       .  S
N11          N12   1.321       .  A
N11          C15   1.341       .  A
N12          C13   1.349       .  A
C13          C14   1.384       .  A
C13          H16   1.082       .  S
C14          C15   1.380       .  A
C14         C100   1.466       .  S
C15          H17   1.082       .  S
N18          N19   1.324   1_545  A
N18          C22   1.344       .  A
N19          C20   1.344       .  A
C20          C21   1.381       .  A
C20          H23   1.082       .  S
C21          C22   1.382   1_565  A
C21         C373   1.475       .  S
C22          H24   1.080       .  S
N25          N26   1.321       .  A
N25          C29   1.348       .  A
N25         Cu33   2.076       .  S
N26          C27   1.341       .  A
N26         Cu32   2.064   1_545  S
C27          C28   1.382       .  A
C27          H30   1.082       .  S
C28          C29   1.386       .  A
C28         C110   1.472       .  S
C29          H31   1.082       .  S
Cu32         N35   2.064       .  S
Cu33         N43   2.077   1_545  S
Cu34         N36   2.063       .  S
Cu34         N42   2.065       .  S
N35          N36   1.321       .  A
N35          C39   1.341       .  A
N36          C37   1.346       .  A
C37          C38   1.381       .  A
C37          H40   1.082       .  S
C38          C39   1.380       .  A
C38         C148   1.461       .  S
C39          H41   1.082       .  S
N42          N43   1.323       .  A
N42          C46   1.343       .  A
N43          C44   1.344   1_565  A
C44          C45   1.382   1_545  A
C44          H47   1.082       .  S
C45          C46   1.380       .  A
C45         C370   1.474       .  S
C46          H48   1.081       .  S
N49          N50   1.321       .  A
N49          C53   1.350       .  A
N49         Cu57   2.082       .  S
N50          C51   1.339       .  A
N50         Cu56   2.062       .  S
C51          C52   1.381       .  A
C51          H54   1.081       .  S
C52          C53   1.388       .  A
C52         C182   1.474       .  S
C53          H55   1.082       .  S
Cu56         N59   2.062   1_655  S
Cu57         N67   2.084       .  S
Cu58         N60   2.076       .  S
Cu58         N66   2.078   1_455  S
N59          N60   1.320       .  A
N59          C63   1.342       .  A
N60          C61   1.348       .  A
C61          C62   1.385       .  A
C61          H64   1.082       .  S
C62          C63   1.380       .  A
C62         C124   1.465       .  S
C63          H65   1.082       .  S
N66          N67   1.325       .  A
N66          C70   1.344       .  A
N67          C68   1.345       .  A
C68          C69   1.384       .  A
C68          H71   1.082       .  S
C69          C70   1.382       .  A
C69         C354   1.479       .  S
C70          H72   1.081   1_655  S
N73          N74   1.321       .  A
N73          C77   1.348   1_655  A
N73         Cu81   2.082       .  S
N74          C75   1.341       .  A
N74         Cu80   2.060       .  S
C75          C76   1.381   1_655  A
C75          H78   1.082       .  S
C76          C77   1.387       .  A
C76         C134   1.472       .  S
C77          H79   1.082       .  S
Cu80         N83   2.061       .  S
Cu81         N91   2.083       .  S
Cu82         N84   2.073       .  S
Cu82         N90   2.075       .  S
N83          N84   1.320       .  A
N83          C87   1.341       .  A
N84          C85   1.348       .  A
C85          C86   1.384       .  A
C85          H88   1.082       .  S
C86          C87   1.380       .  A
C86         C172   1.465       .  S
C87          H89   1.082       .  S
N90          N91   1.324       .  A
N90          C94   1.344       .  A
N91          C92   1.346       .  A
C92          C93   1.384       .  A
C92          H95   1.082       .  S
C93          C94   1.382       .  A
C93         C357   1.479       .  S
C94          H96   1.081       .  S
N97          N98   1.321       .  A
N97         C101   1.348       .  A
N97        Cu105   2.075       .  S
N98          C99   1.341       .  A
N98        Cu104   2.062       .  S
C99         C100   1.380       .  A
C99         H102   1.082       .  S
C100        C101   1.384       .  A
C101        H103   1.082       .  S
Cu104       N107   2.062   1_554  S
Cu105       N115   2.076       .  S
Cu106       N108   2.077       .  S
Cu106       N114   2.079       .  S
N107        N108   1.321       .  A
N107        C111   1.341       .  A
N108        C109   1.348       .  A
C109        C110   1.386       .  A
C109        H112   1.082       .  S
C110        C111   1.381       .  A
C111        H113   1.082       .  S
N114        N115   1.324   1_556  A
N114        C118   1.346       .  A
N115        C116   1.344       .  A
C116        C117   1.381   1_554  A
C116        H119   1.082       .  S
C117        C118   1.382       .  A
C117        C341   1.475       .  S
C118        H120   1.082       .  S
N121        N122   1.322       .  A
N121        C125   1.348       .  A
N121       Cu129   2.079       .  S
N122        C123   1.342       .  A
N122       Cu128   2.067       .  S
C123        C124   1.379       .  A
C123        H126   1.082       .  S
C124        C125   1.384       .  A
C125        H127   1.082       .  S
Cu128       N131   2.067   1_554  S
Cu129       N139   2.080       .  S
Cu130       N132   2.068       .  S
Cu130       N138   2.069       .  S
N131        N132   1.320       .  A
N131        C135   1.342       .  A
N132        C133   1.346       .  A
C133        C134   1.385       .  A
C133        H136   1.082       .  S
C134        C135   1.384       .  A
C135        H137   1.082       .  S
N138        N139   1.323   1_556  A
N138        C142   1.343       .  A
N139        C140   1.345       .  A
C140        C141   1.385   1_554  A
C140        H143   1.082       .  S
C141        C142   1.382       .  A
C141        C322   1.477       .  S
C142        H144   1.081       .  S
N145        N146   1.320       .  A
N145        C149   1.347       .  A
N145       Cu153   2.073       .  S
N146        C147   1.341       .  A
N146       Cu152   2.055   1_556  S
C147        C148   1.379       .  A
C147        H150   1.082       .  S
C148        C149   1.383       .  A
C149        H151   1.082       .  S
Cu152       N155   2.053       .  S
Cu153       N163   2.076   1_556  S
Cu154       N156   2.081       .  S
Cu154       N162   2.083       .  S
N155        N156   1.321       .  A
N155        C159   1.339       .  A
N156        C157   1.349       .  A
C157        C158   1.388       .  A
C157        H160   1.082       .  S
C158        C159   1.379       .  A
C159        H161   1.082       .  S
N162        N163   1.324       .  A
N162        C166   1.345       .  A
N163        C164   1.344       .  A
C164        C165   1.383       .  A
C164        H167   1.082       .  S
C165        C166   1.384       .  A
C165        C306   1.481       .  S
C166        H168   1.080       .  S
N169        N170   1.320       .  A
N169        C173   1.348       .  A
N169       Cu177   2.075       .  S
N170        C171   1.341       .  A
N170       Cu176   2.060   1_556  S
C171        C172   1.379       .  A
C171        H174   1.082       .  S
C172        C173   1.384       .  A
C173        H175   1.082       .  S
Cu176       N179   2.059       .  S
Cu177       N187   2.077   1_556  S
Cu178       N180   2.084       .  S
Cu178       N186   2.086       .  S
N179        N180   1.321       .  A
N179        C183   1.339       .  A
N180        C181   1.350       .  A
C181        C182   1.388       .  A
C181        H184   1.082       .  S
C182        C183   1.381       .  A
C183        H185   1.082       .  S
N186        N187   1.324       .  A
N186        C190   1.346       .  A
N187        C188   1.344       .  A
C188        C189   1.384       .  A
C188        H191   1.082       .  S
C189        C190   1.385       .  A
C189        C290   1.483       .  S
C190        H192   1.080       .  S
N193        N194   1.321       .  A
N193        C197   1.349       .  A
N193       Cu201   2.082       .  S
N194        C195   1.341       .  A
N194       Cu200   2.063       .  S
C195        C196   1.382       .  A
C195        H198   1.082       .  S
C196        C197   1.387       .  A
C196        C220   1.473       .  S
C197        H199   1.082       .  S
Cu200       N203   2.064       .  S
Cu201       N211   2.083       .  S
Cu202       N204   2.073       .  S
Cu202       N210   2.075       .  S
N203        N204   1.320       .  A
N203        C207   1.341       .  A
N204        C205   1.349       .  A
C205        C206   1.384       .  A
C205        H208   1.082   1_556  S
C206        C207   1.381       .  A
C206        C278   1.466   1_556  S
C207        H209   1.082       .  S
N210        N211   1.324       .  A
N210        C214   1.343       .  A
N211        C212   1.346       .  A
C212        C213   1.385       .  A
C212        H215   1.082       .  S
C213        C214   1.383       .  A
C213        C325   1.481       .  S
C214        H216   1.080       .  S
N217        N218   1.321       .  A
N217        C221   1.348       .  A
N217       Cu225   2.077       .  S
N218        C219   1.341       .  A
N218       Cu224   2.063       .  S
C219        C220   1.383       .  A
C219        H222   1.082       .  S
C220        C221   1.386       .  A
C221        H223   1.081       .  S
Cu224       N227   2.064       .  S
Cu225       N235   2.078       .  S
Cu226       N228   2.073       .  S
Cu226       N234   2.075       .  S
N227        N228   1.322       .  A
N227        C231   1.341       .  A
N228        C229   1.348   1_556  A
C229        C230   1.383       .  A
C229        H232   1.082       .  S
C230        C231   1.379   1_554  A
C230        C254   1.464       .  S
C231        H233   1.082       .  S
N234        N235   1.324       .  A
N234        C238   1.344       .  A
N235        C236   1.345       .  A
C236        C237   1.381       .  A
C236        H239   1.082       .  S
C237        C238   1.381       .  A
C237        C338   1.475       .  S
C238        H240   1.082       .  S
N241        N242   1.322       .  A
N241        C245   1.352       .  A
N241       Cu249   2.094       .  S
N242        C243   1.339       .  A
N242       Cu248   2.059       .  S
C243        C244   1.381       .  A
C243        H246   1.082       .  S
C244        C245   1.390       .  A
C244        C268   1.477       .  S
C245        H247   1.082       .  S
Cu248       N251   2.059       .  S
Cu249       N259   2.095       .  S
Cu250       N252   2.071       .  S
Cu250       N258   2.073       .  S
N251        N252   1.320       .  A
N251        C255   1.341       .  A
N252        C253   1.348       .  A
C253        C254   1.383       .  A
C253        H256   1.082       .  S
C254        C255   1.380       .  A
C255        H257   1.082       .  S
N258        N259   1.324       .  A
N258        C262   1.343       .  A
N259        C260   1.348       .  A
C260        C261   1.388       .  A
C260        H263   1.082       .  S
C261        C262   1.382       .  A
C261        C293   1.486       .  S
C262        H264   1.079       .  S
N265        N266   1.321       .  A
N265        C269   1.352       .  A
N265       Cu273   2.090       .  S
N266        C267   1.339       .  A
N266       Cu272   2.059       .  S
C267        C268   1.381       .  A
C267        H270   1.082       .  S
C268        C269   1.390       .  A
C269        H271   1.081       .  S
Cu272       N275   2.060       .  S
Cu273       N283   2.092       .  S
Cu274       N276   2.074       .  S
Cu274       N282   2.076       .  S
N275        N276   1.320       .  A
N275        C279   1.341       .  A
N276        C277   1.349       .  A
C277        C278   1.385       .  A
C277        H280   1.082       .  S
C278        C279   1.380       .  A
C279        H281   1.082       .  S
N282        N283   1.326       .  A
N282        C286   1.344       .  A
N283        C284   1.348       .  A
C284        C285   1.384       .  A
C284        H287   1.082       .  S
C285        C286   1.379       .  A
C285        C309   1.476       .  S
C286        H288   1.082       .  S
C289        C290   1.402       .  A
C289        C294   1.405       .  A
C289        H296   1.084       .  S
C290        C291   1.418       .  A
C291        C292   1.410       .  A
C291        C298   1.519       .  S
C292        C293   1.405       .  A
C292        H297   1.083       .  S
C293        C294   1.421       .  A
C294        C295   1.520       .  S
C295        F299   1.385   1_554  S
C295        F300   1.384       .  S
C295        F301   1.381       .  S
C298        F302   1.384       .  S
C298        F303   1.380       .  S
C298        F304   1.385       .  S
C305        C306   1.404       .  A
C305        C310   1.407       .  A
C305        H312   1.083       .  S
C306        C307   1.419       .  A
C307        C308   1.407       .  A
C307        C314   1.519       .  S
C308        C309   1.401       .  A
C308        H313   1.084       .  S
C309        C310   1.414       .  A
C310        C311   1.518       .  S
C311        F315   1.385   1_554  S
C311        F316   1.383   1_554  S
C311        F317   1.382       .  S
C314        F318   1.383       .  S
C314        F319   1.381       .  S
C314        F320   1.385       .  S
C321        C322   1.400   1_554  A
C321        C326   1.403   1_554  A
C321        H328   1.084       .  S
C322        C323   1.416       .  A
C323        C324   1.408       .  A
C323        C330   1.519       .  S
C324        C325   1.405       .  A
C324        H329   1.083       .  S
C325        C326   1.420       .  A
C326        C327   1.520   1_556  S
C327        F331   1.385       .  S
C327        F332   1.380       .  S
C327        F333   1.383       .  S
C330        F334   1.381       .  S
C330        F335   1.384       .  S
C330        F336   1.385       .  S
C337        C338   1.402       .  A
C337        C342   1.407       .  A
C337        H344   1.083   1_556  S
C338        C339   1.415       .  A
C339        C340   1.406       .  A
C339        C346   1.518       .  S
C340        C341   1.402       .  A
C340        H345   1.083       .  S
C341        C342   1.415       .  A
C342        C343   1.518   1_556  S
C343        F347   1.384       .  S
C343        F348   1.382       .  S
C343        F349   1.384       .  S
C346        F350   1.381       .  S
C346        F351   1.384       .  S
C346        F352   1.384       .  S
C353        C354   1.403       .  A
C353        C358   1.407       .  A
C353        H360   1.083       .  S
C354        C355   1.417       .  A
C355        C356   1.407       .  A
C355        C362   1.519   1_655  S
C356        C357   1.403       .  A
C356        H361   1.083       .  S
C357        C358   1.417       .  A
C358        C359   1.519       .  S
C359        F363   1.385       .  S
C359        F364   1.383       .  S
C359        F365   1.381       .  S
C362        F366   1.381       .  S
C362        F367   1.383   1_455  S
C362        F368   1.385       .  S
C369        C370   1.401       .  A
C369        C374   1.404       .  A
C369        H376   1.084       .  S
C370        C371   1.416       .  A
C371        C372   1.406       .  A
C371        C378   1.519       .  S
C372        C373   1.403       .  A
C372        H377   1.084       .  S
C373        C374   1.417       .  A
C374        C375   1.519   1_565  S
C375        F379   1.385       .  S
C375        F380   1.383   1_545  S
C375        F381   1.381       .  S
C378        F382   1.381       .  S
C378        F383   1.383       .  S
C378        F384   1.385       .  S
