geometry optimzed in LAMMPS
_audit_creation_date              2020-11-30 
_audit_creation_method            'lammps2cif' 
_symmetry_space_group_name_H-M    'P1' 
_symmetry_Int_Tables_number       1 
_symmetry_cell_setting            triclinic 
loop_ 
_symmetry_equiv_pos_as_xyz 
  x,y,z 
_cell_length_a                    24.81934455 
_cell_length_b                    24.789384113018112 
_cell_length_c                    36.03499668841433 
_cell_angle_alpha                 90.61935720439482 
_cell_angle_beta                  90.99126865782142 
_cell_angle_gamma                 90.14464360281616 
loop_ 
_atom_site_label 
_atom_site_type_symbol 
_atom_site_fract_x 
_atom_site_fract_y 
_atom_site_fract_z 
_atom_site_charge 
C1          C  0.31341740  0.72272814  0.01600642     0.87400
C2          C  0.30694367  0.77627440  0.99559401    -0.52800
C3          C  0.26225142  0.78085515  0.47355162     0.10300
C4          C  0.22533186  0.72915697  0.47474461     0.21300
C5          C  0.25986026  0.71578497  0.03639517    -0.53500
C6          C  0.21369961  0.72335593  0.01647383     0.10400
C7          C  0.30985379  0.67958887  0.98571873    -0.53100
C8          C  0.26206757  0.67849337  0.46573770     0.11000
H9          H  0.33639024  0.80853684  0.49812795     0.15500
H10         H  0.18840903  0.73313451  0.45743231     0.01300
H11         H  0.25688102  0.70687795  0.06504416     0.15800
H12         H  0.33983806  0.64788661  0.48371295     0.15600
C13         C  0.24673659  0.83287948  0.22458732     0.87400
C14         C  0.29466341  0.82166839  0.25057093    -0.52800
C15         C  0.29515260  0.77265782  0.26750978     0.10300
C16         C  0.24240389  0.73936509  0.25714584     0.21300
C17         C  0.24641860  0.78288890  0.19762901    -0.53500
C18         C  0.24467965  0.73335341  0.21471000     0.10400
C19         C  0.19731593  0.82571611  0.24832057    -0.53100
C20         C  0.19231814  0.77689991  0.26427512     0.11000
H21         H  0.32758320  0.84951677  0.25411272     0.15500
H22         H  0.23795811  0.69928545  0.26899520     0.01300
H23         H  0.24893407  0.78649013  0.16816602     0.15800
H24         H  0.16802098  0.85738178  0.25265560     0.15600
C25         C  0.79932415  0.24865899  0.46831587     0.87400
C26         C  0.80081727  0.20908851  0.50069503    -0.52800
C27         C  0.75623631  0.20940181  0.02283886     0.10300
C28         C  0.71663180  0.25688495  0.01263349     0.21300
C29         C  0.74404110  0.23582137  0.45046244    -0.53500
C30         C  0.70068391  0.24518928  0.47190688     0.10400
C31         C  0.79306983  0.30457636  0.48690029    -0.53100
C32         C  0.75153234  0.30893754  0.01100607     0.11000
H33         H  0.83331198  0.18024832  0.50412382     0.15500
H34         H  0.68088800  0.26201625  0.02999191     0.01300
H35         H  0.73748377  0.20586180  0.42903035     0.15800
H36         H  0.82158764  0.33726601  0.48307563     0.15600
C37         C  0.80755436  0.25324012  0.22430353     0.87400
C38         C  0.80778574  0.20700669  0.25184558    -0.52800
C39         C  0.76205987  0.20008767  0.27221274     0.10300
C40         C  0.72073440  0.24634598  0.26477945     0.21300
C41         C  0.75425821  0.24689785  0.20185025    -0.53500
C42         C  0.70839642  0.24407620  0.22235881     0.10400
C43         C  0.79696985  0.30356188  0.24805587    -0.53100
C44         C  0.75356512  0.29963319  0.27074795     0.11000
H45         H  0.84322139  0.18272714  0.25396716     0.15500
H46         H  0.68416969  0.24545257  0.28171154     0.01300
H47         H  0.75280987  0.24859391  0.17178544     0.15800
H48         H  0.82025096  0.34039824  0.24671566     0.15600
N49         N  0.01571317  0.75806862  0.09789056    -0.02500
C50         C  0.98680162  0.80295879  0.10824185     0.00000
C51         C  0.94124181  0.78685996  0.12713101    -0.22800
C52         C  0.94277184  0.73238464  0.13029184    -0.23000
C53         C  0.98873133  0.71549103  0.11313953    -0.00100
H54         H  0.91079402  0.81250545  0.13921282     0.13700
H55         H  0.91360726  0.70748904  0.14418695     0.13800
N56         N  0.01044134  0.74704131  0.35932648    -0.02500
C57         C  0.99252078  0.70243691  0.37744724     0.00000
C58         C  0.95794139  0.71779780  0.40544385    -0.22800
C59         C  0.95464041  0.77227605  0.40521502    -0.23000
C60         C  0.98745988  0.78977082  0.37727263    -0.00100
H61         H  0.93717608  0.69192174  0.42457887     0.13700
H62         H  0.93161924  0.79667085  0.42431826     0.13800
N63         N  0.74918453  0.49227084  0.11281894    -0.02500
C64         C  0.70666983  0.51529187  0.13063192     0.00000
C65         C  0.72470941  0.55666375  0.15391792    -0.22800
C66         C  0.77915345  0.56000102  0.15045583    -0.23000
C67         C  0.79324581  0.52065995  0.12533224    -0.00100
H68         H  0.70061568  0.58238947  0.17150135     0.13700
H69         H  0.80590936  0.58779130  0.16511586     0.13800
N70         N  0.73783402  0.48513224  0.36640509    -0.02500
C71         C  0.69540113  0.50803278  0.38418220     0.00000
C72         C  0.71218915  0.55247923  0.40448050    -0.22800
C73         C  0.76669382  0.55676070  0.39991396    -0.23000
C74         C  0.78231430  0.51506750  0.37645341    -0.00100
H75         H  0.68727925  0.57923858  0.42074079     0.13700
H76         H  0.79247240  0.58701749  0.41294593     0.13800
N77         N  0.49324783  0.75431025  0.11882354    -0.02500
C78         C  0.51758321  0.79887116  0.13426582     0.00000
C79         C  0.55986826  0.78295899  0.15726190    -0.22800
C80         C  0.56128177  0.72806686  0.15660789    -0.23000
C81         C  0.52003453  0.71095273  0.13315372    -0.00100
H82         H  0.58669527  0.80864971  0.17360667     0.13700
H83         H  0.58913480  0.70319085  0.17225303     0.13800
N84         N  0.47621898  0.74088507  0.36986964    -0.02500
C85         C  0.49554059  0.69500432  0.38600816     0.00000
C86         C  0.53357751  0.70721795  0.41304001    -0.22800
C87         C  0.53809330  0.76208338  0.41424717    -0.23000
C88         C  0.50259625  0.78236253  0.38781295    -0.00100
H89         H  0.55605517  0.67898275  0.42995248     0.13700
H90         H  0.56461272  0.78487309  0.43275773     0.13800
N91         N  0.75196619  0.03202247  0.12693271    -0.02500
C92         C  0.71129180  0.00768107  0.14582432     0.00000
C93         C  0.73166924  0.97718097  0.17455403    -0.22800
C94         C  0.78616281  0.98059717  0.17300949    -0.23000
C95         C  0.79854043  0.01303016  0.14323104    -0.00100
H96         H  0.70925826  0.95337946  0.19405943     0.13700
H97         H  0.81405766  0.95940795  0.19107006     0.13800
N98         N  0.74718802  0.00367275  0.35812337    -0.02500
C99         C  0.70443061  0.97459015  0.37137424     0.00000
C100        C  0.72189439  0.92471694  0.38342404    -0.22800
C101        C  0.77604646  0.92280136  0.37896131    -0.23000
C102        C  0.79164650  0.97146152  0.36424204    -0.00100
H103        H  0.69787531  0.89318139  0.39557782     0.13700
H104        H  0.80201462  0.89000519  0.38753583     0.13800
N105        N  0.98409175  0.25482696  0.11883610    -0.02500
C106        C  0.01105463  0.21178935  0.10456376     0.00000
C107        C  0.04716609  0.22747029  0.07830801    -0.22800
C108        C  0.04400517  0.28234613  0.07673154    -0.23000
C109        C  0.00565738  0.29888191  0.10204128    -0.00100
H110        H  0.07367841  0.20175468  0.06248257     0.13700
H111        H  0.06838747  0.30773603  0.05940120     0.13800
N112        N  0.99040675  0.24457940  0.37567859    -0.02500
C113        C  0.01619109  0.20191335  0.36003881     0.00000
C114        C  0.04686435  0.21904707  0.33076116    -0.22800
C115        C  0.03895579  0.27382172  0.32778689    -0.23000
C116        C  0.00351014  0.28836949  0.35523145    -0.00100
H117        H  0.07063094  0.19402708  0.31251933     0.13700
H118        H  0.05706049  0.30019645  0.30773640     0.13800
Zn119      Zn  0.05272771  0.96935582  0.08701819     1.49700
Zn120      Zn  0.04453889  0.05924920  0.15503061     1.49400
Zn121      Zn  0.95305973  0.04938560  0.08780080     1.49100
Zn122      Zn  0.96526429  0.96372961  0.15031357     1.49500
O123        O  0.00491016  0.01051280  0.11975894    -1.83200
O124        O  0.12874271  0.00068447  0.09733337    -0.73800
O125        O  0.02460042  0.13663084  0.14372132    -0.73600
O126        O  0.95757509  0.02656302  0.03298168    -0.73200
O127        O  0.12587214  0.05588922  0.14637463    -0.73800
O128        O  0.03769509  0.98670272  0.03316135    -0.73400
O129        O  0.98082904  0.12480174  0.08958598    -0.74000
O130        O  0.88824130  0.98475937  0.14819667    -0.73400
O131        O  0.02975509  0.04255763  0.20983140    -0.74200
O132        O  0.87293582  0.04673454  0.10570248    -0.73600
O133        O  0.98675381  0.96418658  0.20490921    -0.74000
O134        O  0.97203788  0.89026550  0.13038873    -0.73900
O135        O  0.03823642  0.88447568  0.09009548    -0.73700
C136        C  0.15222810  0.03253825  0.12078423     0.78100
C137        C  0.00408341  0.15496002  0.11378012     0.78600
C138        C  0.99727459  0.00608681  0.01578454     0.77500
C139        C  0.85587831  0.01615130  0.13127009     0.77900
C140        C  0.00853259  0.00128279  0.22469605     0.79000
C141        C  0.00057077  0.86213744  0.10857340     0.78100
Zn142      Zn  0.95401457  0.03911832  0.33692787     1.49700
Zn143      Zn  0.95605911  0.95579202  0.40258463     1.49400
Zn144      Zn  0.04432616  0.94610156  0.33813334     1.49100
Zn145      Zn  0.04692626  0.04086014  0.40260884     1.49500
O146        O  0.00091293  0.99600366  0.36949341    -1.83200
O147        O  0.87284438  0.01597236  0.34117459    -0.73800
O148        O  0.97176197  0.87898949  0.39462385    -0.73600
O149        O  0.03422513  0.96208238  0.28259588    -0.73200
O150        O  0.87895974  0.96161070  0.38910485    -0.73800
O151        O  0.97497851  0.02919943  0.28288244    -0.73400
O152        O  0.02579529  0.86684749  0.34680083    -0.74000
O153        O  0.12441982  0.02279128  0.39385214    -0.73400
O154        O  0.96373491  0.97434989  0.45746348    -0.74200
O155        O  0.12345936  0.95803259  0.35030097    -0.73600
O156        O  0.03255521  0.03146355  0.45773552    -0.74000
O157        O  0.03840242  0.11973009  0.38961577    -0.73900
O158        O  0.97106799  0.11861146  0.34780174    -0.73700
C159        C  0.85062145  0.98468920  0.36435620     0.78100
C160        C  0.99623169  0.84808328  0.37217273     0.78600
C161        C  0.00627560  0.99746334  0.26552991     0.77500
C162        C  0.14862291  0.99047390  0.37217056     0.77900
C163        C  0.99733838  0.00440394  0.47491306     0.79000
C164        C  0.00666229  0.14403548  0.36729727     0.78100
N165        N  0.25370899  0.02181621  0.13329158    -0.02500
C166        C  0.21060886  0.04578049  0.11620161     0.00000
C167        C  0.22882180  0.08207398  0.09037542    -0.22800
C168        C  0.28450637  0.08009879  0.09160500    -0.23000
C169        C  0.29872891  0.04229216  0.11790479    -0.00100
H170        H  0.20429624  0.10630555  0.07189742     0.13700
H171        H  0.31160962  0.10257754  0.07431714     0.13800
N172        N  0.24828461  0.97342023  0.38299328    -0.02500
C173        C  0.20605416  0.99931881  0.36673747     0.00000
C174        C  0.22354835  0.03813651  0.34258368    -0.22800
C175        C  0.27857007  0.03589384  0.34322112    -0.23000
C176        C  0.29262228  0.99566669  0.36764778    -0.00100
H177        H  0.19878285  0.06493026  0.32604923     0.13700
H178        H  0.30559422  0.06087501  0.32751746     0.13800
Zn179      Zn  0.55358019  0.04587723  0.09773987     1.49700
Zn180      Zn  0.46364443  0.05844670  0.16269444     1.49400
Zn181      Zn  0.45337558  0.95921901  0.10066658     1.49100
Zn182      Zn  0.54478064  0.96466128  0.16419841     1.49500
O183        O  0.50276748  0.00742221  0.13070237    -1.83200
O184        O  0.54170983  0.12618236  0.10309789    -0.73800
O185        O  0.38417881  0.05505368  0.14728686    -0.73600
O186        O  0.46888740  0.96970541  0.04556050    -0.73200
O187        O  0.48592771  0.13497000  0.15035438    -0.73800
O188        O  0.54029686  0.02428568  0.04346363    -0.73400
O189        O  0.37500732  0.98544106  0.10767589    -0.74000
O190        O  0.53514227  0.88852887  0.15001035    -0.73400
O191        O  0.47400866  0.04423587  0.21949127    -0.74200
O192        O  0.46601650  0.87641498  0.11102046    -0.73600
O193        O  0.52583612  0.97156855  0.21847194    -0.74000
O194        O  0.62262465  0.98285343  0.15992963    -0.73900
O195        O  0.63271943  0.03381168  0.11041137    -0.73700
C196        C  0.51490467  0.15557283  0.12536885     0.78100
C197        C  0.35523483  0.02553886  0.12553132     0.78600
C198        C  0.50437376  0.99508309  0.02730140     0.77500
C199        C  0.50455254  0.85733887  0.13093512     0.77900
C200        C  0.49910133  0.00648010  0.23643696     0.79000
C201        C  0.65260130  0.00868378  0.13794464     0.78100
Zn202      Zn  0.44799351  0.02778173  0.41492122     1.49700
Zn203      Zn  0.54190005  0.04424062  0.35368891     1.49400
Zn204      Zn  0.54345272  0.94921335  0.41294900     1.49100
Zn205      Zn  0.45622709  0.94348319  0.34622106     1.49500
O206        O  0.49728957  0.99144776  0.38120519    -1.83200
O207        O  0.45242608  0.10713167  0.40569824    -0.73800
O208        O  0.62396050  0.02962803  0.36076643    -0.73600
O209        O  0.53873175  0.96755244  0.46857538    -0.73200
O210        O  0.52255937  0.12133529  0.36911012    -0.73800
O211        O  0.46324226  0.01516571  0.46948566    -0.73400
O212        O  0.61908565  0.95754864  0.39621611    -0.74000
O213        O  0.46867215  0.86238073  0.35678385    -0.73400
O214        O  0.52365551  0.03737839  0.29751319    -0.74200
O215        O  0.52482996  0.87136642  0.40509908    -0.73600
O216        O  0.47376654  0.96258526  0.29216873    -0.74000
O217        O  0.37662380  0.95873662  0.35190671    -0.73900
O218        O  0.37104106  0.00834221  0.40361869    -0.73700
C219        C  0.48305180  0.13865588  0.38802276     0.78100
C220        C  0.64650750  0.98946696  0.37645252     0.78600
C221        C  0.50219443  0.99232972  0.48639017     0.77500
C222        C  0.49743201  0.84166158  0.38264204     0.77900
C223        C  0.49816157  0.00240830  0.27755048     0.79000
C224        C  0.34917920  0.98412183  0.37599719     0.78100
N225        N  0.51615981  0.25951821  0.13476447    -0.02500
C226        C  0.49504907  0.29785928  0.11154778     0.00000
C227        C  0.47358143  0.27595386  0.07935958    -0.22800
C228        C  0.48061104  0.22191848  0.08170556    -0.23000
C229        C  0.50617833  0.21233427  0.11524837    -0.00100
H230        H  0.45505090  0.29732669  0.05642712     0.13700
H231        H  0.46765575  0.19212839  0.06123167     0.13800
N232        N  0.49530208  0.24003943  0.39438407    -0.02500
C233        C  0.46632165  0.19522188  0.38500152     0.00000
C234        C  0.41882926  0.20887204  0.36718967    -0.22800
C235        C  0.41898574  0.26387343  0.36430296    -0.23000
C236        C  0.46638248  0.28238547  0.38086983    -0.00100
H237        H  0.38857979  0.18151053  0.35582929     0.13700
H238        H  0.38831622  0.28781737  0.35057577     0.13800
Zn239      Zn  0.95195087  0.55089483  0.08330987     1.49700
Zn240      Zn  0.04325035  0.55501686  0.15086049     1.49400
Zn241      Zn  0.95345640  0.45796453  0.14707058     1.49100
Zn242      Zn  0.04104406  0.46615910  0.08540534     1.49500
O243        O  0.99709764  0.50814805  0.11762305    -1.83200
O244        O  0.96969368  0.62901777  0.09017196    -0.73800
O245        O  0.02464083  0.54044834  0.20603959    -0.73600
O246        O  0.87674179  0.48027433  0.13874227    -0.73200
O247        O  0.03022987  0.63524222  0.13648664    -0.73800
O248        O  0.87318937  0.54097764  0.09385978    -0.73400
O249        O  0.96886254  0.46976133  0.20296936    -0.74000
O250        O  0.02791550  0.38894624  0.09210889    -0.73400
O251        O  0.12435006  0.53762240  0.14553849    -0.74200
O252        O  0.96276013  0.37648387  0.13213607    -0.73600
O253        O  0.11671268  0.47983904  0.09834203    -0.74000
O254        O  0.02920441  0.47692447  0.03078508    -0.73900
O255        O  0.96090106  0.53390646  0.02913792    -0.73700
C256        C  0.00003491  0.65709146  0.11166711     0.78100
C257        C  0.99617753  0.50448993  0.22199067     0.78600
C258        C  0.85017494  0.51139595  0.11744503     0.77500
C259        C  0.99714778  0.35752804  0.10948214     0.77900
C260        C  0.14560932  0.50628625  0.12163032     0.79000
C261        C  0.99433716  0.50374735  0.01269216     0.78100
Zn262      Zn  0.02836392  0.44396703  0.40232850     1.49700
Zn263      Zn  0.94239123  0.45385782  0.33330112     1.49400
Zn264      Zn  0.95116912  0.54012880  0.39866585     1.49100
Zn265      Zn  0.04511504  0.53859491  0.33932204     1.49500
O266        O  0.99224727  0.49398887  0.36716053    -1.83200
O267        O  0.00812778  0.36671114  0.39263530    -0.73800
O268        O  0.85967059  0.47166032  0.34514324    -0.73600
O269        O  0.96441352  0.53246922  0.45349322    -0.73200
O270        O  0.96499356  0.37334053  0.33817476    -0.73800
O271        O  0.01863263  0.46196634  0.45620035    -0.73400
O272        O  0.87336539  0.53239203  0.38981021    -0.74000
O273        O  0.03787917  0.62289451  0.35036304    -0.73400
O274        O  0.95877121  0.47392451  0.27902515    -0.74200
O275        O  0.96873563  0.61384619  0.38751742    -0.73600
O276        O  0.03043048  0.52833046  0.28281888    -0.74000
O277        O  0.12059770  0.50660235  0.35271287    -0.73900
O278        O  0.10771299  0.44398307  0.39547514    -0.73700
C279        C  0.98920655  0.34527931  0.36301728     0.78100
C280        C  0.84120097  0.50535487  0.36917716     0.78600
C281        C  0.99240278  0.49924436  0.47209238     0.77500
C282        C  0.00117054  0.64373738  0.37044882     0.77900
C283        C  0.99497606  0.50237278  0.26345928     0.79000
C284        C  0.13873573  0.47009631  0.37463466     0.78100
N285        N  0.24724230  0.52826205  0.13136945    -0.02500
C286        C  0.20445679  0.49746099  0.11879237     0.00000
C287        C  0.22209933  0.45315404  0.09876024    -0.22800
C288        C  0.27650031  0.45545540  0.09848942    -0.23000
C289        C  0.29141676  0.50097864  0.11821018    -0.00100
H290        H  0.19769194  0.42198628  0.08546667     0.13700
H291        H  0.30289728  0.42641712  0.08547320     0.13800
N292        N  0.24034430  0.47631436  0.38713199    -0.02500
C293        C  0.19548209  0.45163585  0.37254927     0.00000
C294        C  0.21007620  0.40865245  0.35035205    -0.22800
C295        C  0.26546298  0.40864195  0.34962894    -0.23000
C296        C  0.28320725  0.45169558  0.37152225    -0.00100
H297        H  0.18333004  0.38229924  0.33446830     0.13700
H298        H  0.28999487  0.38190057  0.33309037     0.13800
Zn299      Zn  0.54125984  0.54281989  0.15917373     1.49700
Zn300      Zn  0.54625720  0.46081762  0.09112637     1.49400
Zn301      Zn  0.45169919  0.45655614  0.15332836     1.49100
Zn302      Zn  0.45457303  0.55396800  0.09251455     1.49500
O303        O  0.49783136  0.50337580  0.12348129    -1.83200
O304        O  0.61826373  0.52892361  0.14971382    -0.73800
O305        O  0.52969950  0.38263402  0.09763223    -0.73600
O306        O  0.46467181  0.46294600  0.20933402    -0.73200
O307        O  0.62753052  0.47389267  0.10146446    -0.73800
O308        O  0.52691935  0.52693434  0.21336992    -0.73400
O309        O  0.46228239  0.37854566  0.13788990    -0.74000
O310        O  0.37481689  0.54255500  0.10354635    -0.73400
O311        O  0.52957229  0.47451428  0.03689618    -0.74200
O312        O  0.37444262  0.47551685  0.14392145    -0.73600
O313        O  0.46407370  0.53568709  0.03685042    -0.74000
O314        O  0.47622066  0.63379755  0.10293063    -0.73900
O315        O  0.53204655  0.62109918  0.15080374    -0.73700
C316        C  0.64805261  0.50388302  0.12696884     0.78100
C317        C  0.49582960  0.35601682  0.11628955     0.78600
C318        C  0.49555341  0.49356567  0.22878225     0.77500
C319        C  0.34957385  0.50996212  0.12413870     0.77900
C320        C  0.49529455  0.50342965  0.01953330     0.79000
C321        C  0.50795169  0.65242705  0.12831123     0.78100
Zn322      Zn  0.53238576  0.53669724  0.34467839     1.49700
Zn323      Zn  0.53513303  0.44358628  0.40787849     1.49400
Zn324      Zn  0.43757037  0.53129341  0.40521191     1.49100
Zn325      Zn  0.44936913  0.44326889  0.34023536     1.49500
O326        O  0.48881549  0.48905372  0.37513653    -1.83200
O327        O  0.60945785  0.52806231  0.36045390    -0.73800
O328        O  0.52443241  0.46693908  0.46187622    -0.73600
O329        O  0.45094517  0.61146699  0.39579470    -0.73200
O330        O  0.61590033  0.45650289  0.39719378    -0.73800
O331        O  0.51635488  0.61464429  0.35445266    -0.73400
O332        O  0.45523505  0.52381141  0.46056884    -0.74000
O333        O  0.37116316  0.44793440  0.34910810    -0.73400
O334        O  0.51252800  0.36299087  0.40367025    -0.74200
O335        O  0.35849044  0.50490899  0.39608403    -0.73600
O336        O  0.46076705  0.36673575  0.35280334    -0.74000
O337        O  0.46367691  0.45732447  0.28549150    -0.73900
O338        O  0.52395001  0.52344229  0.28901784    -0.73700
C339        C  0.63750715  0.49525055  0.37956005     0.78100
C340        C  0.49150745  0.49807334  0.47850922     0.78600
C341        C  0.48423059  0.63806426  0.37636351     0.77500
C342        C  0.34034941  0.47009151  0.37248209     0.77900
C343        C  0.48180550  0.34021639  0.37930343     0.79000
C344        C  0.49451108  0.49106694  0.26983515     0.78100
C345        C  0.70525345  0.07169763  0.31483159    -0.00900
C346        C  0.74617483  0.05598197  0.34030681     0.08800
C347        C  0.79003733  0.09138633  0.34363067    -0.01000
C348        C  0.80012164  0.12453822  0.31320918    -0.01000
C349        C  0.75503572  0.15178471  0.29766435     0.08900
C350        C  0.70467619  0.12587966  0.30307923    -0.01200
Br351      Br  0.64709474  0.16586839  0.32454594     0.00200
Br352      Br  0.66544248  0.01979842  0.28528788     0.00200
Br353      Br  0.84581030  0.08735460  0.27853610     0.00200
Br354      Br  0.82667415  0.10302641  0.39040068     0.00200
C355        C  0.69913663  0.37821625  0.29558460    -0.00900
C356        C  0.74303685  0.34270831  0.29922334     0.08800
C357        C  0.78159212  0.35456459  0.32754349    -0.01000
C358        C  0.77236206  0.39463549  0.35393378    -0.01000
C359        C  0.73644294  0.43592163  0.34497952     0.08900
C360        C  0.70089327  0.42843762  0.31421422    -0.01200
Br361      Br  0.66352508  0.48800177  0.29184332     0.00200
Br362      Br  0.63665570  0.35992168  0.26640704     0.00200
Br363      Br  0.80975345  0.39222281  0.40171776     0.00200
Br364      Br  0.85290657  0.32920313  0.32697731     0.00200
C365        C  0.64263794  0.29894389  0.18411044    -0.00900
C366        C  0.65330664  0.25166619  0.20454849     0.08800
C367        C  0.60942475  0.21615155  0.21023695    -0.01000
C368        C  0.55848618  0.22624837  0.19365457    -0.01000
C369        C  0.55207941  0.26734684  0.16742627     0.08900
C370        C  0.59090903  0.30933487  0.16944976    -0.01200
Br371      Br  0.56828233  0.38240277  0.17977508     0.00200
Br372      Br  0.69509440  0.35557098  0.18100169     0.00200
Br373      Br  0.49489214  0.19937117  0.21704115     0.00200
Br374      Br  0.61815993  0.14922802  0.23531221     0.00200
C375        C  0.85993893  0.21389824  0.17011450    -0.00900
C376        C  0.85857863  0.25195110  0.19964430     0.08800
C377        C  0.90738726  0.28166092  0.20643529    -0.01000
C378        C  0.94978780  0.27942129  0.18067070    -0.01000
C379        C  0.94238531  0.25282854  0.14635144     0.08900
C380        C  0.89687746  0.21901864  0.14144648    -0.01200
Br381      Br  0.88103075  0.18049605  0.09563683     0.00200
Br382      Br  0.82168631  0.14664990  0.17300539     0.00200
Br383      Br  0.02095540  0.30651315  0.19389534     0.00200
Br384      Br  0.92441386  0.31748558  0.25242832     0.00200
C385        C  0.76063071  0.10836081  0.03709014    -0.00900
C386        C  0.74583365  0.16189424  0.04825394     0.08800
C387        C  0.72328608  0.16831159  0.08392133    -0.01000
C388        C  0.72259172  0.12453830  0.10879829    -0.01000
C389        C  0.74635431  0.07446542  0.09955692     0.08900
C390        C  0.76238461  0.06581848  0.06292928    -0.01200
Br391      Br  0.78228343  0.99375637  0.04785114     0.00200
Br392      Br  0.77252522  0.08974565  0.48561955     0.00200
Br393      Br  0.68807120  0.13350079  0.15565805     0.00200
Br394      Br  0.69243330  0.23567274  0.10025266     0.00200
C395        C  0.72491972  0.40609543  0.02657439    -0.00900
C396        C  0.74780716  0.35636970  0.03732711     0.08800
C397        C  0.77399030  0.35393775  0.07222314    -0.01000
C398        C  0.77334024  0.39758698  0.09740006    -0.01000
C399        C  0.74865580  0.44656737  0.08732052     0.08900
C400        C  0.72623077  0.45116185  0.05118529    -0.01200
Br401      Br  0.70181162  0.52066447  0.03446236     0.00200
Br402      Br  0.69436416  0.41386847  0.47767157     0.00200
Br403      Br  0.80847041  0.38910940  0.14519376     0.00200
Br404      Br  0.81715026  0.29333260  0.08434702     0.00200
C405        C  0.60090710  0.21845196  0.46945503    -0.00900
C406        C  0.64532396  0.24590760  0.45447699     0.08800
C407        C  0.63785821  0.27278663  0.42021092    -0.01000
C408        C  0.59065769  0.26607533  0.39902873    -0.01000
C409        C  0.54577481  0.24164626  0.41471407     0.08900
C410        C  0.55035918  0.21982039  0.45076254    -0.01200
Br411      Br  0.48693156  0.19493803  0.47549780     0.00200
Br412      Br  0.60869201  0.17612308  0.01373085     0.00200
Br413      Br  0.58867597  0.28885656  0.34788070     0.00200
Br414      Br  0.68813291  0.32513038  0.40335011     0.00200
C415        C  0.90209786  0.25489932  0.45905209    -0.00900
C416        C  0.84955019  0.24583955  0.44284303     0.08800
C417        C  0.84691766  0.23571715  0.40333817    -0.01000
C418        C  0.89452457  0.22940569  0.38310605    -0.01000
C419        C  0.94445842  0.24142919  0.39921853     0.08900
C420        C  0.94854356  0.25442998  0.43695160    -0.01200
Br421      Br  0.01882372  0.27109902  0.45778580     0.00200
Br422      Br  0.91317598  0.27029355  0.01137130     0.00200
Br423      Br  0.89337360  0.20636300  0.33154023     0.00200
Br424      Br  0.78272368  0.23615799  0.37209113     0.00200
C425        C  0.34053123  0.72550205  0.32326007    -0.00900
C426        C  0.34499382  0.75608687  0.29065189     0.08800
C427        C  0.39853846  0.77295075  0.28158443    -0.01000
C428        C  0.44220803  0.76524760  0.30695645    -0.01000
C429        C  0.43309097  0.74456810  0.34247423     0.08900
C430        C  0.38193042  0.72434296  0.35027750    -0.01200
Br431      Br  0.36760936  0.69522585  0.39849934     0.00200
Br432      Br  0.28669038  0.67273323  0.32803823     0.00200
Br433      Br  0.51546267  0.77943013  0.29274430     0.00200
Br434      Br  0.41615905  0.79987987  0.23313646     0.00200
C435        C  0.10616479  0.74763541  0.34497029    -0.00900
C436        C  0.05287648  0.74955305  0.33263671     0.08800
C437        C  0.04330315  0.76325947  0.29528776    -0.01000
C438        C  0.08800449  0.77496016  0.27231056    -0.01000
C439        C  0.14183273  0.76429469  0.28549599     0.08900
C440        C  0.14582730  0.73639974  0.31861143    -0.01200
Br441      Br  0.14284792  0.66257489  0.30305151     0.00200
Br442      Br  0.12176886  0.79037684  0.38859455     0.00200
Br443      Br  0.07327937  0.79984485  0.22321032     0.00200
Br444      Br  0.97017444  0.76945089  0.27737575     0.00200
C445        C  0.27767832  0.58554282  0.18572457    -0.00900
C446        C  0.24579481  0.57851703  0.15309042     0.08800
C447        C  0.21157833  0.62169837  0.14283700    -0.01000
C448        C  0.20652447  0.66705902  0.16642871    -0.01000
C449        C  0.24529723  0.67896843  0.19429949     0.08900
C450        C  0.28174118  0.63684037  0.20353622    -0.01200
Br451      Br  0.33920974  0.64745020  0.23906792     0.00200
Br452      Br  0.30971793  0.52394965  0.20951995     0.00200
Br453      Br  0.13714697  0.69876279  0.16959341     0.00200
Br454      Br  0.17453517  0.62337484  0.09540129     0.00200
C455        C  0.27210021  0.93700334  0.21875383    -0.00900
C456        C  0.24634258  0.88838527  0.20548438     0.08800
C457        C  0.21048894  0.89515271  0.17539015    -0.01000
C458        C  0.22664441  0.93007959  0.14796971    -0.01000
C459        C  0.25218806  0.97786076  0.15875165     0.08900
C460        C  0.27248035  0.98282314  0.19538459    -0.01200
Br461      Br  0.29625133  0.05247887  0.21353657     0.00200
Br462      Br  0.29763991  0.94737237  0.26904667     0.00200
Br463      Br  0.20475017  0.91828668  0.09780442     0.00200
Br464      Br  0.13955937  0.91643003  0.19061122     0.00200
C465        C  0.36244412  0.70788981  0.07929603    -0.00900
C466        C  0.36481962  0.72236312  0.04136769     0.08800
C467        C  0.41451163  0.74433552  0.02921608    -0.01000
C468        C  0.45583338  0.75824449  0.05514025    -0.01000
C469        C  0.44814320  0.75112696  0.09331839     0.08900
C470        C  0.40042274  0.72745214  0.10518630    -0.01200
Br471      Br  0.38967749  0.71649122  0.15727785     0.00200
Br472      Br  0.32364416  0.64552493  0.09461587     0.00200
Br473      Br  0.52407161  0.78553033  0.03876933     0.00200
Br474      Br  0.42912737  0.75161884  0.47726719     0.00200
C475        C  0.11256357  0.77546013  0.08821856    -0.00900
C476        C  0.06344613  0.75428796  0.07520509     0.08800
C477        C  0.06274855  0.72435538  0.04164031    -0.01000
C478        C  0.11131836  0.71234281  0.02315479    -0.01000
C479        C  0.16108366  0.73432751  0.03602131     0.08900
C480        C  0.16081433  0.76589796  0.06939807    -0.01200
Br481      Br  0.22589405  0.79411308  0.09292454     0.00200
Br482      Br  0.11426351  0.81599762  0.13333469     0.00200
Br483      Br  0.10953177  0.65789360  0.48487999     0.00200
Br484      Br  0.99463708  0.70225203  0.01985117     0.00200
C485        C  0.22884296  0.57305526  0.39075915    -0.00900
C486        C  0.24202070  0.52549518  0.40833739     0.08800
C487        C  0.25405042  0.52571577  0.44641159    -0.01000
C488        C  0.25608797  0.57508947  0.46631054    -0.01000
C489        C  0.24480021  0.62481261  0.44808389     0.08900
C490        C  0.22403040  0.62108331  0.41141325    -0.01200
Br491      Br  0.16382542  0.66300664  0.39814475     0.00200
Br492      Br  0.21658144  0.56817598  0.33799786     0.00200
Br493      Br  0.26711294  0.57215316  0.01925749     0.00200
Br494      Br  0.26840533  0.45809993  0.47042901     0.00200
C495        C  0.25291729  0.93135382  0.44519600    -0.00900
C496        C  0.24670245  0.92657415  0.40648234     0.08800
C497        C  0.24306357  0.87520807  0.39035021    -0.01000
C498        C  0.24720778  0.82891985  0.41241369    -0.01000
C499        C  0.25289224  0.83198027  0.45124995     0.08900
C500        C  0.25685981  0.88456555  0.46746848    -0.01200
Br501      Br  0.27114324  0.89418558  0.01953099     0.00200
Br502      Br  0.25629568  0.00254749  0.46706855     0.00200
Br503      Br  0.25284846  0.76196032  0.38826196    -0.05400
Br504      Br  0.23413223  0.86878401  0.33740502     0.00200
C505        C  0.31341733  0.72272794  0.51600654     0.87400
C506        C  0.30694358  0.77627421  0.49559419    -0.52800
C507        C  0.26225149  0.78085520  0.97355142     0.10300
C508        C  0.22533193  0.72915705  0.97474450     0.21300
C509        C  0.25986017  0.71578475  0.53639520    -0.53500
C510        C  0.21369954  0.72335577  0.51647395     0.10400
C511        C  0.30985373  0.67958871  0.48571878    -0.53100
C512        C  0.26206766  0.67849344  0.96573765     0.11000
H513        H  0.33639006  0.80853681  0.99812771     0.15500
H514        H  0.18840912  0.73313453  0.95743220     0.01300
H515        H  0.25688094  0.70687755  0.56504474     0.15800
H516        H  0.33983827  0.64788656  0.98371292     0.15600
C517        C  0.24673690  0.83287960  0.72458740     0.87400
C518        C  0.29466363  0.82166862  0.75057111    -0.52800
C519        C  0.29515291  0.77265802  0.76750993     0.10300
C520        C  0.24240433  0.73936520  0.75714588     0.21300
C521        C  0.24641916  0.78288904  0.69762898    -0.53500
C522        C  0.24468025  0.73335352  0.71471008     0.10400
C523        C  0.19731616  0.82571606  0.74832055    -0.53100
C524        C  0.19231847  0.77689985  0.76427511     0.11000
H525        H  0.32758340  0.84951707  0.75411297     0.15500
H526        H  0.23795863  0.69928536  0.76899531     0.01300
H527        H  0.24893468  0.78649018  0.66816665     0.15800
H528        H  0.16802114  0.85738164  0.75265558     0.15600
C529        C  0.79932468  0.24865847  0.96831571     0.87400
C530        C  0.80081775  0.20908795  0.00069488    -0.52800
C531        C  0.75623582  0.20940219  0.52283898     0.10300
C532        C  0.71663123  0.25688528  0.51263362     0.21300
C533        C  0.74404161  0.23582100  0.95046233    -0.53500
C534        C  0.70068446  0.24518897  0.97190675     0.10400
C535        C  0.79307050  0.30457588  0.98690014    -0.53100
C536        C  0.75153171  0.30893796  0.51100624     0.11000
H537        H  0.83331222  0.18024785  0.00412367     0.15500
H538        H  0.68088734  0.26201645  0.52999206     0.01300
H539        H  0.73748417  0.20586136  0.92902994     0.15800
H540        H  0.82158826  0.33726534  0.98307550     0.15600
C541        C  0.80755480  0.25323958  0.72430372     0.87400
C542        C  0.80778602  0.20700596  0.75184562    -0.52800
C543        C  0.76206012  0.20008729  0.77221287     0.10300
C544        C  0.72073489  0.24634586  0.76477970     0.21300
C545        C  0.75425856  0.24689780  0.70185047    -0.53500
C546        C  0.70839681  0.24407627  0.72235907     0.10400
C547        C  0.79697077  0.30356129  0.74805624    -0.53100
C548        C  0.75356593  0.29963288  0.77074827     0.11000
H549        H  0.84322107  0.18272652  0.75396704     0.15500
H550        H  0.68417024  0.24545258  0.78171181     0.01300
H551        H  0.75281013  0.24859394  0.67178569     0.15800
H552        H  0.82025250  0.34039732  0.74671622     0.15600
N553        N  0.01571324  0.75806904  0.59789060    -0.02500
C554        C  0.98680178  0.80295917  0.60824200     0.00000
C555        C  0.94124215  0.78686038  0.62713145    -0.22800
C556        C  0.94277235  0.73238501  0.63029230    -0.23000
C557        C  0.98873166  0.71549143  0.61313977    -0.00100
H558        H  0.91079480  0.81250558  0.63921328     0.13700
H559        H  0.91360795  0.70748942  0.64418760     0.13800
N560        N  0.01044177  0.74704106  0.85932648    -0.02500
C561        C  0.99252135  0.70243668  0.87744734     0.00000
C562        C  0.95794195  0.71779761  0.90544389    -0.22800
C563        C  0.95464075  0.77227577  0.90521494    -0.23000
C564        C  0.98746016  0.78977057  0.87727255    -0.00100
H565        H  0.93717660  0.69192132  0.92457913     0.13700
H566        H  0.93161939  0.79667075  0.92431829     0.13800
N567        N  0.74918477  0.49227164  0.61281884    -0.02500
C568        C  0.70667007  0.51529264  0.63063182     0.00000
C569        C  0.72470962  0.55666451  0.65391783    -0.22800
C570        C  0.77915366  0.56000180  0.65045575    -0.23000
C571        C  0.79324605  0.52066072  0.62533216    -0.00100
H572        H  0.70061587  0.58239019  0.67150129     0.13700
H573        H  0.80590952  0.58779202  0.66511581     0.13800
N574        N  0.73783444  0.48513252  0.86640481    -0.02500
C575        C  0.69540153  0.50803344  0.88418170     0.00000
C576        C  0.71218960  0.55248026  0.90447952    -0.22800
C577        C  0.76669420  0.55676161  0.89991296    -0.23000
C578        C  0.78231474  0.51506798  0.87645285    -0.00100
H579        H  0.68727940  0.57924025  0.92073973     0.13700
H580        H  0.79247305  0.58701892  0.91294476     0.13800
N581        N  0.49324748  0.75431009  0.61882384    -0.02500
C582        C  0.51758276  0.79887102  0.63426618     0.00000
C583        C  0.55986760  0.78295885  0.65726243    -0.22800
C584        C  0.56128109  0.72806678  0.65660843    -0.23000
C585        C  0.52003410  0.71095260  0.63315412    -0.00100
H586        H  0.58669460  0.80864969  0.67360731     0.13700
H587        H  0.58913423  0.70319058  0.67225379     0.13800
N588        N  0.47621928  0.74088523  0.86986974    -0.02500
C589        C  0.49554102  0.69500446  0.88600817     0.00000
C590        C  0.53357803  0.70721808  0.91303996    -0.22800
C591        C  0.53809369  0.76208353  0.91424719    -0.23000
C592        C  0.50259651  0.78236268  0.88781306    -0.00100
H593        H  0.55605577  0.67898290  0.92995232     0.13700
H594        H  0.56461315  0.78487326  0.93275774     0.13800
N595        N  0.75196605  0.03202237  0.62693242    -0.02500
C596        C  0.71129176  0.00768068  0.64582395     0.00000
C597        C  0.73166926  0.97718040  0.67455360    -0.22800
C598        C  0.78616281  0.98059694  0.67300904    -0.23000
C599        C  0.79854036  0.01303014  0.64323073    -0.00100
H600        H  0.70925857  0.95337893  0.69405871     0.13700
H601        H  0.81405793  0.95940756  0.69106972     0.13800
N602        N  0.74718824  0.00367269  0.85812373    -0.02500
C603        C  0.70443081  0.97459015  0.87137464     0.00000
C604        C  0.72189461  0.92471700  0.88342457    -0.22800
C605        C  0.77604669  0.92280140  0.87896185    -0.23000
C606        C  0.79164671  0.97146150  0.86424247    -0.00100
H607        H  0.69787550  0.89318145  0.89557840     0.13700
H608        H  0.80201479  0.89000531  0.88753639     0.13800
N609        N  0.98409189  0.25482733  0.61883615    -0.02500
C610        C  0.01105498  0.21178974  0.60456399     0.00000
C611        C  0.04716679  0.22747068  0.57830847    -0.22800
C612        C  0.04400587  0.28234654  0.57673196    -0.23000
C613        C  0.00565771  0.29888229  0.60204147    -0.00100
H614        H  0.07367929  0.20175513  0.56248322     0.13700
H615        H  0.06838835  0.30773637  0.55940183     0.13800
N616        N  0.99040721  0.24457910  0.87567839    -0.02500
C617        C  0.01619145  0.20191303  0.86003857     0.00000
C618        C  0.04686478  0.21904675  0.83076094    -0.22800
C619        C  0.03895640  0.27382149  0.82778674    -0.23000
C620        C  0.00351073  0.28836922  0.85523133    -0.00100
H621        H  0.07063127  0.19402680  0.81251911     0.13700
H622        H  0.05706101  0.30019599  0.80773646     0.13800
Zn623      Zn  0.05272776  0.96935617  0.58701813     1.49700
Zn624      Zn  0.04453921  0.05924941  0.65503064     1.49400
Zn625      Zn  0.95305980  0.04938609  0.58780086     1.49100
Zn626      Zn  0.96526430  0.96373004  0.65031352     1.49500
O627        O  0.00491029  0.01051319  0.61975895    -1.83200
O628        O  0.12874281  0.00068469  0.59733322    -0.73800
O629        O  0.02460078  0.13663112  0.64372145    -0.73600
O630        O  0.95757517  0.02656366  0.53298175    -0.73200
O631        O  0.12587242  0.05588933  0.64637454    -0.73800
O632        O  0.03769501  0.98670305  0.53316131    -0.73400
O633        O  0.98082910  0.12480222  0.58958620    -0.74000
O634        O  0.88824132  0.98475972  0.64819644    -0.73400
O635        O  0.02975559  0.04255763  0.70983143    -0.74200
O636        O  0.87293577  0.04673494  0.60570231    -0.73600
O637        O  0.98675359  0.96418698  0.70490918    -0.74000
O638        O  0.97203800  0.89026595  0.63038872    -0.73900
O639        O  0.03823649  0.88447603  0.59009545    -0.73700
C640        C  0.15222828  0.03253837  0.62078408     0.78100
C641        C  0.00408363  0.15496040  0.61378033     0.78600
C642        C  0.99727451  0.00608726  0.51578455     0.77500
C643        C  0.85587826  0.01615158  0.63126984     0.77900
C644        C  0.00853274  0.00128293  0.72469605     0.79000
C645        C  0.00057086  0.86213784  0.60857342     0.78100
Zn646      Zn  0.95401472  0.03911809  0.83692786     1.49700
Zn647      Zn  0.95605948  0.95579168  0.90258460     1.49400
Zn648      Zn  0.04432650  0.94610142  0.83813328     1.49100
Zn649      Zn  0.04692640  0.04085993  0.90260881     1.49500
O650        O  0.00091321  0.99600342  0.86949337    -1.83200
O651        O  0.87284454  0.01597220  0.84117476    -0.73800
O652        O  0.97176218  0.87898921  0.89462373    -0.73600
O653        O  0.03422541  0.96208249  0.78259584    -0.73200
O654        O  0.87896008  0.96161056  0.88910502    -0.73800
O655        O  0.97497853  0.02919932  0.78288243    -0.73400
O656        O  0.02579572  0.86684726  0.84680082    -0.74000
O657        O  0.12441996  0.02279116  0.89385211    -0.73400
O658        O  0.96373541  0.97434922  0.95746344    -0.74200
O659        O  0.12345970  0.95803262  0.85030084    -0.73600
O660        O  0.03255524  0.03146344  0.95773554    -0.74000
O661        O  0.03840262  0.11972980  0.88961559    -0.73900
O662        O  0.97106818  0.11861121  0.84780157    -0.73700
C663        C  0.85062169  0.98468910  0.86435644     0.78100
C664        C  0.99623200  0.84808302  0.87217264     0.78600
C665        C  0.00627576  0.99746339  0.76552989     0.77500
C666        C  0.14862315  0.99047395  0.87217047     0.77900
C667        C  0.99733860  0.00440353  0.97491305     0.79000
C668        C  0.00666256  0.14403519  0.86729704     0.78100
N669        N  0.25370912  0.02181612  0.63329137    -0.02500
C670        C  0.21060904  0.04578050  0.61620144     0.00000
C671        C  0.22882200  0.08207425  0.59037543    -0.22800
C672        C  0.28450659  0.08009913  0.59160509    -0.23000
C673        C  0.29872908  0.04229228  0.61790475    -0.00100
H674        H  0.20429652  0.10630597  0.57189756     0.13700
H675        H  0.31160983  0.10257809  0.57431742     0.13800
N676        N  0.24828480  0.97342023  0.88299311    -0.02500
C677        C  0.20605436  0.99931903  0.86673745     0.00000
C678        C  0.22354863  0.03813704  0.84258396    -0.22800
C679        C  0.27857033  0.03589440  0.84322137    -0.23000
C680        C  0.29262249  0.99566691  0.86764781    -0.00100
H681        H  0.19878295  0.06493127  0.82604956     0.13700
H682        H  0.30559444  0.06087574  0.82751797     0.13800
Zn683      Zn  0.55358019  0.04587684  0.59773972     1.49700
Zn684      Zn  0.46364474  0.05844674  0.66269438     1.49400
Zn685      Zn  0.45337553  0.95921881  0.60066660     1.49100
Zn686      Zn  0.54478067  0.96466111  0.66419840     1.49500
O687        O  0.50276752  0.00742202  0.63070233    -1.83200
O688        O  0.54171024  0.12618198  0.60309768    -0.73800
O689        O  0.38417906  0.05505380  0.64728674    -0.73600
O690        O  0.46888725  0.96970501  0.54556046    -0.73200
O691        O  0.48592835  0.13497003  0.65035426    -0.73800
O692        O  0.54029668  0.02428529  0.54346354    -0.73400
O693        O  0.37500737  0.98544101  0.60767592    -0.74000
O694        O  0.53514210  0.88852873  0.65001044    -0.73400
O695        O  0.47400898  0.04423592  0.71949126    -0.74200
O696        O  0.46601622  0.87641481  0.61102064    -0.73600
O697        O  0.52583628  0.97156848  0.71847198    -0.74000
O698        O  0.62262467  0.98285313  0.65992946    -0.73900
O699        O  0.63271936  0.03381117  0.61041108    -0.73700
C700        C  0.51490535  0.15557266  0.62536866     0.78100
C701        C  0.35523499  0.02553894  0.62553128     0.78600
C702        C  0.50437357  0.99508270  0.52730133     0.77500
C703        C  0.50455225  0.85733871  0.63093530     0.77900
C704        C  0.49910159  0.00648012  0.73643699     0.79000
C705        C  0.65260127  0.00868335  0.63794437     0.78100
Zn706      Zn  0.44799368  0.02778190  0.91492127     1.49700
Zn707      Zn  0.54190030  0.04424066  0.85368897     1.49400
Zn708      Zn  0.54345280  0.94921345  0.91294913     1.49100
Zn709      Zn  0.45622727  0.94348334  0.84622115     1.49500
O710        O  0.49728974  0.99144789  0.88120526    -1.83200
O711        O  0.45242636  0.10713182  0.90569828    -0.73800
O712        O  0.62396070  0.02962799  0.86076668    -0.73600
O713        O  0.53873188  0.96755261  0.96857548    -0.73200
O714        O  0.52255960  0.12133539  0.86911010    -0.73800
O715        O  0.46324251  0.01516606  0.96948571    -0.73400
O716        O  0.61908574  0.95754858  0.89621632    -0.74000
O717        O  0.46867236  0.86238090  0.85678397    -0.73400
O718        O  0.52365593  0.03737836  0.79751322    -0.74200
O719        O  0.52483005  0.87136656  0.90509928    -0.73600
O720        O  0.47376666  0.96258544  0.79216881    -0.74000
O721        O  0.37662400  0.95873679  0.85190681    -0.73900
O722        O  0.37104120  0.00834238  0.90361880    -0.73700
C723        C  0.48305209  0.13865601  0.88802279     0.78100
C724        C  0.64650766  0.98946691  0.87645279     0.78600
C725        C  0.50219464  0.99233005  0.98639024     0.77500
C726        C  0.49743217  0.84166173  0.88264220     0.77900
C727        C  0.49816183  0.00240836  0.77755052     0.79000
C728        C  0.34917937  0.98412201  0.87599728     0.78100
N729        N  0.51616063  0.25951806  0.63476435    -0.02500
C730        C  0.49505029  0.29785918  0.61154752     0.00000
C731        C  0.47358324  0.27595383  0.57935913    -0.22800
C732        C  0.48061278  0.22191848  0.58170512    -0.23000
C733        C  0.50617943  0.21233415  0.61524813    -0.00100
H734        H  0.45505304  0.29732676  0.55642650     0.13700
H735        H  0.46765774  0.19212831  0.56123105     0.13800
N736        N  0.49530263  0.24003958  0.89438405    -0.02500
C737        C  0.46632202  0.19522206  0.88500165     0.00000
C738        C  0.41882942  0.20887236  0.86719018    -0.22800
C739        C  0.41898586  0.26387374  0.86430353    -0.23000
C740        C  0.46638289  0.28238566  0.88087008    -0.00100
H741        H  0.38857952  0.18151074  0.85582991     0.13700
H742        H  0.38831628  0.28781767  0.85057665     0.13800
Zn743      Zn  0.95195131  0.55089527  0.58330993     1.49700
Zn744      Zn  0.04325069  0.55501723  0.65086061     1.49400
Zn745      Zn  0.95345660  0.45796498  0.64707063     1.49100
Zn746      Zn  0.04104437  0.46615947  0.58540539     1.49500
O747        O  0.99709796  0.50814844  0.61762312    -1.83200
O748        O  0.96969418  0.62901820  0.59017207    -0.73800
O749        O  0.02464138  0.54044854  0.70603971    -0.73600
O750        O  0.87674198  0.48027498  0.63874234    -0.73200
O751        O  0.03023015  0.63524262  0.63648688    -0.73800
O752        O  0.87318975  0.54097819  0.59385977    -0.73400
O753        O  0.96886291  0.46976168  0.70296939    -0.74000
O754        O  0.02791564  0.38894663  0.59210897    -0.73400
O755        O  0.12435036  0.53762279  0.64553861    -0.74200
O756        O  0.96276030  0.37648424  0.63213618    -0.73600
O757        O  0.11671296  0.47983920  0.59834229    -0.74000
O758        O  0.02920487  0.47692487  0.53078507    -0.73900
O759        O  0.96090155  0.53390690  0.52913797    -0.73700
C760        C  0.00003529  0.65709188  0.61166730     0.78100
C761        C  0.99617804  0.50449012  0.72199075     0.78600
C762        C  0.85017521  0.51139662  0.61744503     0.77500
C763        C  0.99714796  0.35752842  0.60948225     0.77900
C764        C  0.14560960  0.50628643  0.62163058     0.79000
C765        C  0.99433759  0.50374776  0.51269218     0.78100
Zn766      Zn  0.02836426  0.44396681  0.90232858     1.49700
Zn767      Zn  0.94239175  0.45385764  0.83330108     1.49400
Zn768      Zn  0.95116948  0.54012862  0.89866583     1.49100
Zn769      Zn  0.04511559  0.53859473  0.83932218     1.49500
O770        O  0.99224772  0.49398866  0.86716058    -1.83200
O771        O  0.00812828  0.36671088  0.89263523    -0.73800
O772        O  0.85967106  0.47166032  0.84514301    -0.73600
O773        O  0.96441339  0.53246891  0.95349319    -0.73200
O774        O  0.96499415  0.37334031  0.83817467    -0.73800
O775        O  0.01863257  0.46196607  0.95620039    -0.73400
O776        O  0.87336580  0.53239217  0.88980990    -0.74000
O777        O  0.03787980  0.62289431  0.85036317    -0.73400
O778        O  0.95877181  0.47392444  0.77902517    -0.74200
O779        O  0.96873628  0.61384596  0.88751755    -0.73600
O780        O  0.03043105  0.52833042  0.78281900    -0.74000
O781        O  0.12059819  0.50660209  0.85271312    -0.73900
O782        O  0.10771337  0.44398293  0.89547547    -0.73700
C783        C  0.98920713  0.34527907  0.86301718     0.78100
C784        C  0.84120141  0.50535504  0.86917679     0.78600
C785        C  0.99240256  0.49924402  0.97209238     0.77500
C786        C  0.00117120  0.64373716  0.87044896     0.77900
C787        C  0.99497664  0.50237279  0.76345935     0.79000
C788        C  0.13873616  0.47009612  0.87463498     0.78100
N789        N  0.24724266  0.52826188  0.63136979    -0.02500
C790        C  0.20445704  0.49746087  0.61879281     0.00000
C791        C  0.22209944  0.45315362  0.59876096    -0.22800
C792        C  0.27650044  0.45545468  0.59849017    -0.23000
C793        C  0.29141701  0.50097811  0.61821071    -0.00100
H794        H  0.19769190  0.42198576  0.58546748     0.13700
H795        H  0.30289715  0.42641636  0.58547416     0.13800
N796        N  0.24034470  0.47631423  0.88713228    -0.02500
C797        C  0.19548249  0.45163560  0.87254965     0.00000
C798        C  0.21007661  0.40865213  0.85035253    -0.22800
C799        C  0.26546329  0.40864173  0.84962938    -0.23000
C800        C  0.28320765  0.45169541  0.87152252    -0.00100
H801        H  0.18333023  0.38229870  0.83446878     0.13700
H802        H  0.28999557  0.38189988  0.83309058     0.13800
Zn803      Zn  0.54125998  0.54281984  0.65917375     1.49700
Zn804      Zn  0.54625758  0.46081783  0.59112632     1.49400
Zn805      Zn  0.45169972  0.45655569  0.65332832     1.49100
Zn806      Zn  0.45457300  0.55396788  0.59251472     1.49500
O807        O  0.49783161  0.50337570  0.62348131    -1.83200
O808        O  0.61826394  0.52892401  0.64971380    -0.73800
O809        O  0.52970042  0.38263413  0.59763218    -0.73600
O810        O  0.46467228  0.46294554  0.70933399    -0.73200
O811        O  0.62753086  0.47389324  0.60146436    -0.73800
O812        O  0.52691947  0.52693422  0.71336992    -0.73400
O813        O  0.46228321  0.37854531  0.63788975    -0.74000
O814        O  0.37481696  0.54255480  0.60354681    -0.73400
O815        O  0.52957227  0.47451452  0.53689615    -0.74200
O816        O  0.37444310  0.47551610  0.64392149    -0.73600
O817        O  0.46407342  0.53568707  0.53685052    -0.74000
O818        O  0.47622043  0.63379747  0.60293084    -0.73900
O819        O  0.53204638  0.62109904  0.65080389    -0.73700
C820        C  0.64805288  0.50388361  0.62696876     0.78100
C821        C  0.49583059  0.35601670  0.61628943     0.78600
C822        C  0.49555368  0.49356540  0.72878224     0.77500
C823        C  0.34957414  0.50996157  0.62413902     0.77900
C824        C  0.49529433  0.50342975  0.51953334     0.79000
C825        C  0.50795141  0.65242694  0.62831147     0.78100
Zn826      Zn  0.53238586  0.53669738  0.84467831     1.49700
Zn827      Zn  0.53513363  0.44358647  0.90787844     1.49400
Zn828      Zn  0.43757074  0.53129347  0.90521197     1.49100
Zn829      Zn  0.44936940  0.44326893  0.84023543     1.49500
O830        O  0.48881583  0.48905381  0.87513656    -1.83200
O831        O  0.60945805  0.52806266  0.86045360    -0.73800
O832        O  0.52443291  0.46693914  0.96187620    -0.73600
O833        O  0.45094568  0.61146711  0.89579487    -0.73200
O834        O  0.61590091  0.45650337  0.89719358    -0.73800
O835        O  0.51635494  0.61464444  0.85445251    -0.73400
O836        O  0.45523542  0.52381134  0.96056882    -0.74000
O837        O  0.37116341  0.44793445  0.84910813    -0.73400
O838        O  0.51252878  0.36299100  0.90367024    -0.74200
O839        O  0.35849084  0.50490889  0.89608417    -0.73600
O840        O  0.46076724  0.36673590  0.85280361    -0.74000
O841        O  0.46367725  0.45732417  0.78549152    -0.73900
O842        O  0.52395000  0.52344230  0.78901780    -0.73700
C843        C  0.63750754  0.49525104  0.87955973     0.78100
C844        C  0.49150783  0.49807330  0.97850920     0.78600
C845        C  0.48423090  0.63806440  0.87636354     0.77500
C846        C  0.34034974  0.47009146  0.87248223     0.77900
C847        C  0.48180597  0.34021655  0.87930359     0.79000
C848        C  0.49451127  0.49106675  0.76983514     0.78100
C849        C  0.70525359  0.07169749  0.81483194    -0.00900
C850        C  0.74617505  0.05598184  0.84030709     0.08800
C851        C  0.79003764  0.09138612  0.84363078    -0.01000
C852        C  0.80012188  0.12453779  0.81320918    -0.01000
C853        C  0.75503592  0.15178443  0.79766453     0.08900
C854        C  0.70467635  0.12587949  0.80307951    -0.01200
Br855      Br  0.64709496  0.16586837  0.82454617     0.00200
Br856      Br  0.66544273  0.01979822  0.78528820     0.00200
Br857      Br  0.84580959  0.08735348  0.77853583     0.00200
Br858      Br  0.82667464  0.10302644  0.89040070     0.00200
C859        C  0.69913721  0.37821595  0.79558477    -0.00900
C860        C  0.74303758  0.34270817  0.79922357     0.08800
C861        C  0.78159274  0.35456470  0.82754375    -0.01000
C862        C  0.77236254  0.39463572  0.85393393    -0.01000
C863        C  0.73644333  0.43592170  0.84497951     0.08900
C864        C  0.70089371  0.42843742  0.81421424    -0.01200
Br865      Br  0.66352556  0.48800140  0.79184306     0.00200
Br866      Br  0.63665624  0.35992116  0.76640732     0.00200
Br867      Br  0.80975390  0.39222352  0.90171795     0.00200
Br868      Br  0.85290717  0.32920331  0.82697782     0.00200
C869        C  0.64263834  0.29894393  0.68411067    -0.00900
C870        C  0.65330702  0.25166624  0.70454874     0.08800
C871        C  0.60942513  0.21615155  0.71023711    -0.01000
C872        C  0.55848663  0.22624828  0.69365460    -0.01000
C873        C  0.55207994  0.26734674  0.66742629     0.08900
C874        C  0.59090946  0.30933486  0.66944993    -0.01200
Br875      Br  0.56828249  0.38240259  0.67977553     0.00200
Br876      Br  0.69509476  0.35557112  0.68100211     0.00200
Br877      Br  0.49489251  0.19937112  0.71704110     0.00200
Br878      Br  0.61816020  0.14922808  0.73531246     0.00200
C879        C  0.85993893  0.21389828  0.67011425    -0.00900
C880        C  0.85857898  0.25195049  0.69964442     0.08800
C881        C  0.90738790  0.28165957  0.70643579    -0.01000
C882        C  0.94978813  0.27942084  0.68067093    -0.01000
C883        C  0.94238537  0.25282883  0.64635141     0.08900
C884        C  0.89687747  0.21901901  0.64144626    -0.01200
Br885      Br  0.88103093  0.18049681  0.59563642     0.00200
Br886      Br  0.82168612  0.14665002  0.67300477     0.00200
Br887      Br  0.02095570  0.30651278  0.69389550     0.00200
Br888      Br  0.92441541  0.31748086  0.75242985     0.00200
C889        C  0.76063043  0.10836113  0.53709002    -0.00900
C890        C  0.74583319  0.16189447  0.54825393     0.08800
C891        C  0.72328546  0.16831155  0.58392129    -0.01000
C892        C  0.72259126  0.12453817  0.60879818    -0.01000
C893        C  0.74635403  0.07446541  0.59955672     0.08900
C894        C  0.76238436  0.06581868  0.56292907    -0.01200
Br895      Br  0.78228323  0.99375665  0.54785079     0.00200
Br896      Br  0.77252539  0.08974510  0.98561970     0.00200
Br897      Br  0.68807087  0.13350040  0.65565801     0.00200
Br898      Br  0.69243219  0.23567244  0.60025270     0.00200
C899        C  0.72491961  0.40609605  0.52657442    -0.00900
C900        C  0.74780656  0.35637016  0.53732727     0.08800
C901        C  0.77398958  0.35393816  0.57222336    -0.01000
C902        C  0.77334000  0.39758761  0.59740013    -0.01000
C903        C  0.74865595  0.44656812  0.58732046     0.08900
C904        C  0.72623095  0.45116258  0.55118522    -0.01200
Br905      Br  0.70181219  0.52066527  0.53446216     0.00200
Br906      Br  0.69436393  0.41386775  0.97767164     0.00200
Br907      Br  0.80847039  0.38911017  0.64519376     0.00200
Br908      Br  0.81714877  0.29333259  0.58434752     0.00200
C909        C  0.60090754  0.21845221  0.96945506    -0.00900
C910        C  0.64532451  0.24590756  0.95447691     0.08800
C911        C  0.63785882  0.27278660  0.92021085    -0.01000
C912        C  0.59065826  0.26607544  0.89902869    -0.01000
C913        C  0.54577537  0.24164637  0.91471403     0.08900
C914        C  0.55035967  0.21982065  0.95076255    -0.01200
Br915      Br  0.48693200  0.19493843  0.97549782     0.00200
Br916      Br  0.60869180  0.17612235  0.51373059     0.00200
Br917      Br  0.58867647  0.28885689  0.84788071     0.00200
Br918      Br  0.68813368  0.32513022  0.90335006     0.00200
C919        C  0.90209839  0.25489861  0.95905192    -0.00900
C920        C  0.84955070  0.24583901  0.94284286     0.08800
C921        C  0.84691813  0.23571684  0.90333797    -0.01000
C922        C  0.89452502  0.22940544  0.88310582    -0.01000
C923        C  0.94445888  0.24142888  0.89921830     0.08900
C924        C  0.94854407  0.25442941  0.93695140    -0.01200
Br925      Br  0.01882429  0.27109825  0.95778559     0.00200
Br926      Br  0.91317533  0.27029474  0.51137142     0.00200
Br927      Br  0.89337398  0.20636289  0.83153994     0.00200
Br928      Br  0.78272414  0.23615789  0.87209095     0.00200
C929        C  0.34053161  0.72550207  0.82326014    -0.00900
C930        C  0.34499414  0.75608707  0.79065203     0.08800
C931        C  0.39853875  0.77295106  0.78158460    -0.01000
C932        C  0.44220834  0.76524784  0.80695660    -0.01000
C933        C  0.43309128  0.74456826  0.84247435     0.08900
C934        C  0.38193077  0.72434300  0.85027757    -0.01200
Br935      Br  0.36760973  0.69522579  0.89849938     0.00200
Br936      Br  0.28669097  0.67273297  0.82803821     0.00200
Br937      Br  0.51546302  0.77943019  0.79274446     0.00200
Br938      Br  0.41615931  0.79988031  0.73313667     0.00200
C939        C  0.10616522  0.74763536  0.84497033    -0.00900
C940        C  0.05287691  0.74955284  0.83263673     0.08800
C941        C  0.04330354  0.76325912  0.79528775    -0.01000
C942        C  0.08800485  0.77495983  0.77231054    -0.01000
C943        C  0.14183310  0.76429454  0.78549598     0.08900
C944        C  0.14582777  0.73639975  0.81861148    -0.01200
Br945      Br  0.14284872  0.66257489  0.80305159     0.00200
Br946      Br  0.12176917  0.79037668  0.88859467     0.00200
Br947      Br  0.07327964  0.79984445  0.72321030     0.00200
Br948      Br  0.97017483  0.76945045  0.77737572     0.00200
C949        C  0.27767901  0.58554293  0.68572475    -0.00900
C950        C  0.24579536  0.57851700  0.65309066     0.08800
C951        C  0.21157890  0.62169834  0.64283718    -0.01000
C952        C  0.20652510  0.66705909  0.66642881    -0.01000
C953        C  0.24529786  0.67896855  0.69429958     0.08900
C954        C  0.28174183  0.63684051  0.70353635    -0.01200
Br955      Br  0.33921030  0.64745038  0.73906814     0.00200
Br956      Br  0.30971910  0.52394998  0.70952012     0.00200
Br957      Br  0.13714770  0.69876310  0.66959334     0.00200
Br958      Br  0.17453581  0.62337479  0.59540142     0.00200
C959        C  0.27210045  0.93700351  0.71875375    -0.00900
C960        C  0.24634275  0.88838540  0.70548443     0.08800
C961        C  0.21048899  0.89515277  0.67539025    -0.01000
C962        C  0.22664433  0.93007959  0.64796972    -0.01000
C963        C  0.25218812  0.97786075  0.65875153     0.08900
C964        C  0.27248048  0.98282325  0.69538445    -0.01200
Br965      Br  0.29625137  0.05247906  0.71353636     0.00200
Br966      Br  0.29764043  0.94737277  0.76904651     0.00200
Br967      Br  0.20474985  0.91828651  0.59780449     0.00200
Br968      Br  0.13955947  0.91643005  0.69061145     0.00200
C969        C  0.36244391  0.70788966  0.57929616    -0.00900
C970        C  0.36481954  0.72236285  0.54136781     0.08800
C971        C  0.41451166  0.74433506  0.52921624    -0.01000
C972        C  0.45583342  0.75824391  0.55514044    -0.01000
C973        C  0.44814299  0.75112674  0.59331859     0.08900
C974        C  0.40042241  0.72745212  0.60518646    -0.01200
Br975      Br  0.38967684  0.71649160  0.65727801     0.00200
Br976      Br  0.32364416  0.64552463  0.59461589     0.00200
Br977      Br  0.52407197  0.78552907  0.53876961     0.00200
Br978      Br  0.42912727  0.75161926  0.97726700     0.00200
C979        C  0.11256360  0.77546047  0.58821856    -0.00900
C980        C  0.06344613  0.75428839  0.57520509     0.08800
C981        C  0.06274849  0.72435579  0.54164033    -0.01000
C982        C  0.11131828  0.71234300  0.52315486    -0.01000
C983        C  0.16108363  0.73432754  0.53602140     0.08900
C984        C  0.16081436  0.76589808  0.56939813    -0.01200
Br985      Br  0.22589414  0.79411290  0.59292470     0.00200
Br986      Br  0.11426351  0.81599794  0.63333469     0.00200
Br987      Br  0.10953197  0.65789348  0.98487988     0.00200
Br988      Br  0.99463694  0.70225277  0.51985116     0.00200
C989        C  0.22884332  0.57305511  0.89075927    -0.00900
C990        C  0.24202108  0.52549510  0.90833760     0.08800
C991        C  0.25405068  0.52571583  0.94641182    -0.01000
C992        C  0.25608804  0.57508958  0.96631071    -0.01000
C993        C  0.24480030  0.62481264  0.94808395     0.08900
C994        C  0.22403063  0.62108320  0.91141329    -0.01200
Br995      Br  0.16382554  0.66300634  0.89814472     0.00200
Br996      Br  0.21658193  0.56817570  0.83799797     0.00200
Br997      Br  0.26711309  0.57215281  0.51925730     0.00200
Br998      Br  0.26840587  0.45810013  0.97042934     0.00200
C999        C  0.25291716  0.93135381  0.94519580    -0.00900
C1000       C  0.24670258  0.92657413  0.90648212     0.08800
C1001       C  0.24306389  0.87520804  0.89034996    -0.01000
C1002       C  0.24720804  0.82891982  0.91241345    -0.01000
C1003       C  0.25289230  0.83198027  0.95124971     0.08900
C1004       C  0.25685970  0.88456554  0.96746826    -0.01200
Br1005     Br  0.27114344  0.89418558  0.51953121     0.00200
Br1006     Br  0.25629536  0.00254746  0.96706841     0.00200
Br1007     Br  0.25284870  0.76196020  0.88826178    -0.05400
Br1008     Br  0.23413277  0.86878400  0.83740476     0.00200
loop_ 
_geom_bond_atom_site_label_1 
_geom_bond_atom_site_label_2 
_geom_bond_distance 
_geom_bond_site_symmetry_2 
_ccdc_geom_bond_type 
C1            C2   1.532   1_554  S
C1            C7   1.521   1_554  S
C1            C5   1.540       .  S
C1          C466   1.557       .  S
C2          H513   1.084       .  S
C2          C507   1.359       .  D
C3            C4   1.575       .  S
C3          C506   1.359       .  D
C3          C499   1.524       .  S
C4            C8   1.588       .  S
C4          C510   1.544       .  S
C4           H10   1.105       .  S
C5           H11   1.062       .  S
C5            C6   1.356       .  D
C6          C508   1.544   1_554  S
C6          C479   1.518       .  S
C7          H516   1.086       .  S
C7          C512   1.377       .  D
C8          C511   1.377       .  D
C8          C489   1.526       .  S
H9          C506   1.084       .  S
H12         C511   1.086       .  S
C13          C14   1.529       .  S
C13          C19   1.519       .  S
C13          C17   1.566       .  S
C13         C456   1.545       .  S
C14          H21   1.073       .  S
C14          C15   1.366       .  D
C15          C16   1.583       .  S
C15         C426   1.539       .  S
C16          C20   1.578       .  S
C16          C18   1.537       .  S
C16          H22   1.092       .  S
C17          H23   1.069       .  S
C17          C18   1.380       .  D
C18         C449   1.529       .  S
C19          H24   1.083       .  S
C19          C20   1.352       .  D
C20         C439   1.513       .  S
C25          C26   1.532       .  S
C25          C31   1.542       .  S
C25          C29   1.536       .  S
C25         C416   1.562       .  S
C26          H33   1.085       .  S
C26         C531   1.375       .  D
C27          C28   1.578       .  S
C27         C530   1.375       .  D
C27         C386   1.524       .  S
C28          C32   1.555       .  S
C28         C534   1.538   1_554  S
C28          H34   1.101       .  S
C29          H35   1.076       .  S
C29          C30   1.355       .  D
C30         C532   1.538       .  S
C30         C406   1.501       .  S
C31          H36   1.086       .  S
C31         C536   1.363       .  D
C32         C535   1.363   1_554  D
C32         C396   1.507       .  S
C37          C38   1.524       .  S
C37          C43   1.531       .  S
C37          C41   1.545       .  S
C37         C376   1.560       .  S
C38          H45   1.069       .  S
C38          C39   1.374       .  D
C39          C40   1.563       .  S
C39         C349   1.528       .  S
C40          C44   1.561       .  S
C40          C42   1.554       .  S
C40          H46   1.103       .  S
C41          H47   1.085       .  S
C41          C42   1.370       .  D
C42         C366   1.513       .  S
C43          H48   1.081       .  S
C43          C44   1.368       .  D
C44         C356   1.499       .  S
N49          C53   1.373   1_455  A
N49          C50   1.377   1_455  A
N49         C476   1.454       .  S
C50          C51   1.390       .  A
C50         C141   1.505   1_655  S
C51          C52   1.357       .  A
C51          H54   1.083       .  S
C52          C53   1.371       .  A
C52          H55   1.083       .  S
C53         C256   1.476   1_655  S
N56          C60   1.366   1_455  A
N56          C57   1.367   1_455  A
N56         C436   1.440       .  S
C57          C58   1.387       .  A
C57         C282   1.491   1_655  S
C58          C59   1.353       .  A
C58          H61   1.083       .  S
C59          C60   1.379       .  A
C59          H62   1.083       .  S
C60         C160   1.475       .  S
N63          C67   1.366       .  A
N63          C64   1.367       .  A
N63         C399   1.451       .  S
C64          C65   1.387       .  A
C64         C316   1.485       .  S
C65          C66   1.362       .  A
C65          H68   1.083       .  S
C66          C67   1.374       .  A
C66          H69   1.083       .  S
C67         C258   1.464       .  S
N70          C74   1.370       .  A
N70          C71   1.364       .  A
N70         C359   1.437       .  S
C71          C72   1.376       .  A
C71         C339   1.477       .  S
C72          C73   1.370       .  A
C72          H75   1.082       .  S
C73          C74   1.388       .  A
C73          H76   1.083       .  S
C74         C280   1.509       .  S
N77          C81   1.367       .  A
N77          C78   1.366       .  A
N77         C469   1.438       .  S
C78          C79   1.387       .  A
C78         C199   1.491       .  S
C79          C80   1.361       .  A
C79          H82   1.083       .  S
C80          C81   1.379       .  A
C80          H83   1.083       .  S
C81         C321   1.489       .  S
N84          C88   1.368       .  A
N84          C85   1.367       .  A
N84         C429   1.447       .  S
C85          C86   1.376       .  A
C85         C341   1.475       .  S
C86          C87   1.365       .  A
C86          H89   1.083       .  S
C87          C88   1.386       .  A
C87          H90   1.083       .  S
C88         C222   1.489       .  S
N91          C95   1.374       .  A
N91          C92   1.370       .  A
N91         C389   1.455       .  S
C92          C93   1.378   1_545  A
C92         C201   1.480       .  S
C93          C94   1.357       .  A
C93          H96   1.083       .  S
C94          C95   1.386   1_565  A
C94          H97   1.083       .  S
C95         C139   1.496       .  S
N98         C102   1.380   1_545  A
N98          C99   1.377   1_545  A
N98         C346   1.453       .  S
C99         C100   1.383       .  A
C99         C220   1.499       .  S
C100        C101   1.357       .  A
C100        H103   1.083       .  S
C101        C102   1.380       .  A
C101        H104   1.083       .  S
C102        C159   1.499       .  S
N105        C109   1.367   1_655  A
N105        C106   1.362   1_655  A
N105        C379   1.447       .  S
C106        C107   1.373       .  A
C106        C137   1.461       .  S
C107        C108   1.365       .  A
C107        H110   1.083       .  S
C108        C109   1.389       .  A
C108        H111   1.083       .  S
C109        C259   1.492   1_455  S
N112        C116   1.360   1_655  A
N112        C113   1.360   1_655  A
N112        C419   1.435       .  S
C113        C114   1.382       .  A
C113        C164   1.480       .  S
C114        C115   1.377       .  A
C114        H117   1.082       .  S
C115        C116   1.381       .  A
C115        H118   1.082       .  S
C116        C279   1.481   1_455  S
Zn119       O123   1.967   1_565  S
Zn119       O124   2.065   1_565  S
Zn119       O128   2.021       .  S
Zn119       O135   2.138       .  S
Zn120       O123   1.990       .  S
Zn120       O125   2.026       .  S
Zn120       O127   2.050       .  S
Zn120       O131   2.061       .  S
Zn121       O123   1.972   1_655  S
Zn121       O126   2.054       .  S
Zn121       O129   1.991       .  S
Zn121       O132   2.102       .  S
Zn122       O123   1.893   1_665  S
Zn122       O130   1.983       .  S
Zn122       O133   2.029       .  S
Zn122       O134   1.959       .  S
O124        C136   1.282       .  A
O125        C137   1.274       .  A
O126        C138   1.276       .  A
O127        C136   1.275       .  A
O128        C138   1.271   1_465  A
O129        C137   1.272   1_655  A
O130        C139   1.272   1_565  A
O131        C140   1.277       .  A
O132        C139   1.277       .  A
O133        C140   1.271   1_665  A
O134        C141   1.271   1_655  A
O135        C141   1.285       .  A
C136        C166   1.497       .  S
C138        C667   1.473   1_554  S
C140        C161   1.478   1_545  S
Zn142       O146   1.965   1_645  S
Zn142       O147   2.102       .  S
Zn142       O151   2.037       .  S
Zn142       O158   2.047       .  S
Zn143       O146   1.929   1_655  S
Zn143       O148   1.963       .  S
Zn143       O150   1.972       .  S
Zn143       O154   2.031       .  S
Zn144       O146   1.997       .  S
Zn144       O149   2.056       .  S
Zn144       O152   2.045       .  S
Zn144       O155   2.025       .  S
Zn145       O146   1.970   1_545  S
Zn145       O153   2.005       .  S
Zn145       O156   2.040       .  S
Zn145       O157   2.026       .  S
O147        C159   1.277   1_545  A
O148        C160   1.271       .  A
O149        C161   1.276       .  A
O150        C159   1.268       .  A
O151        C161   1.274   1_645  A
O152        C160   1.273   1_455  A
O153        C162   1.272   1_545  A
O154        C163   1.271   1_565  A
O155        C162   1.275       .  A
O156        C163   1.274   1_455  A
O157        C164   1.273       .  A
O158        C164   1.280   1_655  A
C162        C173   1.458       .  S
C163        C642   1.473       .  S
N165        C169   1.356       .  A
N165        C166   1.366       .  A
N165        C459   1.433   1_545  S
C166        C167   1.382       .  A
C167        C168   1.383       .  A
C167        H170   1.082       .  S
C168        C169   1.382       .  A
C168        H171   1.082       .  S
C169        C197   1.486       .  S
N172        C176   1.358       .  A
N172        C173   1.358       .  A
N172        C496   1.445       .  S
C173        C174   1.379   1_565  A
C174        C175   1.367       .  A
C174        H177   1.083       .  S
C175        C176   1.379   1_545  A
C175        H178   1.083       .  S
C176        C224   1.460       .  S
Zn179       O183   1.995       .  S
Zn179       O184   2.021       .  S
Zn179       O188   2.043       .  S
Zn179       O195   2.032       .  S
Zn180       O183   1.971       .  S
Zn180       O185   2.041       .  S
Zn180       O187   2.031       .  S
Zn180       O191   2.092       .  S
Zn181       O183   2.005   1_565  S
Zn181       O186   2.048       .  S
Zn181       O189   2.071       .  S
Zn181       O192   2.113       .  S
Zn182       O183   1.912   1_565  S
Zn182       O190   1.963       .  S
Zn182       O193   2.025       .  S
Zn182       O194   1.992       .  S
O184        C196   1.275       .  A
O185        C197   1.277       .  A
O186        C198   1.277       .  A
O187        C196   1.272       .  A
O188        C198   1.276   1_545  A
O189        C197   1.282   1_565  A
O190        C199   1.271       .  A
O191        C200   1.280       .  A
O192        C199   1.280       .  A
O193        C200   1.270   1_565  A
O194        C201   1.273   1_565  A
O195        C201   1.270       .  A
C196        C229   1.473       .  S
C198        C725   1.475   1_554  S
C200        C223   1.487       .  S
Zn202       O206   1.954   1_545  S
Zn202       O207   2.002       .  S
Zn202       O211   2.024       .  S
Zn202       O218   2.003       .  S
Zn203       O206   1.995   1_545  S
Zn203       O208   2.081       .  S
Zn203       O210   2.045       .  S
Zn203       O214   2.072       .  S
Zn204       O206   1.925       .  S
Zn204       O209   2.056       .  S
Zn204       O212   1.992       .  S
Zn204       O215   1.999       .  S
Zn205       O206   1.990       .  S
Zn205       O213   2.073       .  S
Zn205       O216   2.063       .  S
Zn205       O217   2.026       .  S
O207        C219   1.272       .  A
O208        C220   1.276   1_545  A
O209        C221   1.275       .  A
O210        C219   1.276       .  A
O211        C221   1.271   1_545  A
O212        C220   1.274       .  A
O213        C222   1.277       .  A
O214        C223   1.280       .  A
O215        C222   1.275       .  A
O216        C223   1.280   1_565  A
O217        C224   1.275       .  A
O218        C224   1.270   1_545  A
C219        C233   1.468       .  S
C221        C702   1.475       .  S
N225        C229   1.378       .  A
N225        C226   1.372       .  A
N225        C369   1.475       .  S
C226        C227   1.374       .  A
C226        C317   1.450       .  S
C227        C228   1.355       .  A
C227        H230   1.083       .  S
C228        C229   1.379       .  A
C228        H231   1.083       .  S
N232        C236   1.363       .  A
N232        C233   1.358       .  A
N232        C409   1.440       .  S
C233        C234   1.377       .  A
C234        C235   1.369       .  A
C234        H237   1.083       .  S
C235        C236   1.385       .  A
C235        H238   1.083       .  S
C236        C343   1.485       .  S
Zn239       O243   1.973       .  S
Zn239       O244   1.997       .  S
Zn239       O248   2.013       .  S
Zn239       O255   2.009       .  S
Zn240       O243   2.003   1_455  S
Zn240       O245   2.084       .  S
Zn240       O247   2.085       .  S
Zn240       O251   2.071       .  S
Zn241       O243   1.977       .  S
Zn241       O246   2.003       .  S
Zn241       O249   2.061       .  S
Zn241       O252   2.099       .  S
Zn242       O243   1.909   1_455  S
Zn242       O250   1.959       .  S
Zn242       O253   1.955       .  S
Zn242       O254   2.006       .  S
O244        C256   1.272   1_655  A
O245        C257   1.283   1_455  A
O246        C258   1.272       .  A
O247        C256   1.282       .  A
O248        C258   1.271       .  A
O249        C257   1.280       .  A
O250        C259   1.267   1_455  A
O251        C260   1.276       .  A
O252        C259   1.278       .  A
O253        C260   1.270       .  A
O254        C261   1.268   1_455  A
O255        C261   1.269       .  A
C257        C283   1.497       .  S
C260        C286   1.483       .  S
C261        C785   1.466   1_554  S
Zn262       O266   1.987   1_455  S
Zn262       O267   2.004       .  S
Zn262       O271   2.006       .  S
Zn262       O278   1.989       .  S
Zn263       O266   1.981       .  S
Zn263       O268   2.150       .  S
Zn263       O270   2.083       .  S
Zn263       O274   2.070       .  S
Zn264       O266   1.912       .  S
Zn264       O269   2.008       .  S
Zn264       O272   1.960       .  S
Zn264       O275   1.926       .  S
Zn265       O266   2.003   1_455  S
Zn265       O273   2.132       .  S
Zn265       O276   2.075       .  S
Zn265       O277   2.087       .  S
O267        C279   1.269   1_455  A
O268        C280   1.288       .  A
O269        C281   1.268       .  A
O270        C279   1.282       .  A
O271        C281   1.269   1_455  A
O272        C280   1.267       .  A
O273        C282   1.280       .  A
O274        C283   1.281       .  A
O275        C282   1.265   1_655  A
O276        C283   1.281   1_455  A
O277        C284   1.285       .  A
O278        C284   1.266       .  A
C281        C765   1.466       .  S
C284        C293   1.485       .  S
N285        C289   1.378       .  A
N285        C286   1.374       .  A
N285        C446   1.465       .  S
C286        C287   1.384       .  A
C287        C288   1.351       .  A
C287        H290   1.083       .  S
C288        C289   1.374       .  A
C288        H291   1.083       .  S
C289        C319   1.472       .  S
N292        C296   1.355       .  A
N292        C293   1.364       .  A
N292        C486   1.432       .  S
C293        C294   1.378       .  A
C294        C295   1.375       .  A
C294        H297   1.082       .  S
C295        C296   1.387       .  A
C295        H298   1.082       .  S
C296        C342   1.488       .  S
Zn299       O303   1.921       .  S
Zn299       O304   1.978       .  S
Zn299       O308   2.034       .  S
Zn299       O315   1.980       .  S
Zn300       O303   1.986       .  S
Zn300       O305   1.997       .  S
Zn300       O307   2.069       .  S
Zn300       O311   2.023       .  S
Zn301       O303   1.969       .  S
Zn301       O306   2.043       .  S
Zn301       O309   2.025       .  S
Zn301       O312   1.999       .  S
Zn302       O303   1.992       .  S
Zn302       O310   2.045       .  S
Zn302       O313   2.069       .  S
Zn302       O314   2.078       .  S
O304        C316   1.271       .  A
O305        C317   1.273       .  A
O306        C318   1.273       .  A
O307        C316   1.274       .  A
O308        C318   1.273       .  A
O309        C317   1.275       .  A
O310        C319   1.274       .  A
O311        C320   1.274       .  A
O312        C319   1.272       .  A
O313        C320   1.280       .  A
O314        C321   1.278       .  A
O315        C321   1.272       .  A
C318        C344   1.482       .  S
C320        C844   1.484   1_554  S
Zn322       O326   1.957       .  S
Zn322       O327   1.999       .  S
Zn322       O331   2.002       .  S
Zn322       O338   2.036       .  S
Zn323       O326   1.993       .  S
Zn323       O328   2.046       .  S
Zn323       O330   2.073       .  S
Zn323       O334   2.077       .  S
Zn324       O326   1.980       .  S
Zn324       O329   2.047       .  S
Zn324       O332   2.045       .  S
Zn324       O335   2.087       .  S
Zn325       O326   1.936       .  S
Zn325       O333   1.976       .  S
Zn325       O336   1.975       .  S
Zn325       O337   2.044       .  S
O327        C339   1.272       .  A
O328        C340   1.278       .  A
O329        C341   1.279       .  A
O330        C339   1.279       .  A
O331        C341   1.269       .  A
O332        C340   1.276       .  A
O333        C342   1.269       .  A
O334        C343   1.279       .  A
O335        C342   1.281       .  A
O336        C343   1.271       .  A
O337        C344   1.275       .  A
O338        C344   1.274       .  A
C340        C824   1.484       .  S
C345        C346   1.415       .  A
C345        C350   1.413       .  A
C345       Br352   1.922       .  S
C346        C347   1.399       .  A
C347        C348   1.403       .  A
C347       Br354   1.920       .  S
C348        C349   1.419       .  A
C348       Br353   1.930       .  S
C349        C350   1.421       .  A
C350       Br351   1.911       .  S
C355        C356   1.408       .  A
C355        C360   1.408       .  A
C355       Br362   1.909       .  S
C356        C357   1.415       .  A
C357        C358   1.390       .  A
C357       Br364   1.880       .  S
C358        C359   1.396       .  A
C358       Br363   1.943       .  S
C359        C360   1.415       .  A
C360       Br361   1.923       .  S
C365        C366   1.414       .  A
C365        C370   1.405       .  A
C365       Br372   1.918       .  S
C366        C367   1.418       .  A
C367        C368   1.413       .  A
C367       Br374   1.909       .  S
C368        C369   1.405       .  A
C368       Br373   1.923       .  S
C369        C370   1.417       .  A
C370       Br371   1.932       .  S
C375        C376   1.415       .  A
C375        C380   1.400       .  A
C375       Br382   1.921       .  S
C376        C377   1.432       .  A
C377        C378   1.416       .  A
C377       Br384   1.912       .  S
C378        C379   1.404       .  A
C378       Br383   1.938   1_655  S
C379        C380   1.412       .  A
C380       Br381   1.932       .  S
C385        C386   1.433       .  A
C385        C390   1.415       .  A
C385       Br896   1.934   1_554  S
C386        C387   1.418       .  A
C387        C388   1.415       .  A
C387       Br394   1.929       .  S
C388        C389   1.415       .  A
C388       Br393   1.918       .  S
C389        C390   1.400       .  A
C390       Br391   1.930   1_545  S
Br392       C889   1.934       .  S
C395        C396   1.414       .  A
C395        C400   1.419       .  A
C395       Br906   1.918   1_554  S
C396        C397   1.407       .  A
C397        C398   1.405       .  A
C397       Br404   1.898       .  S
C398        C399   1.410       .  A
C398       Br403   1.931       .  S
C399        C400   1.413       .  A
C400       Br401   1.927       .  S
Br402       C899   1.918       .  S
C405        C406   1.412       .  A
C405        C410   1.414       .  A
C405       Br916   1.926       .  S
C406        C407   1.419       .  A
C407        C408   1.396       .  A
C407       Br414   1.909       .  S
C408        C409   1.397       .  A
C408       Br413   1.933       .  S
C409        C410   1.415       .  A
C410       Br411   1.926       .  S
Br412       C909   1.926   1_554  S
C415        C416   1.436       .  A
C415        C420   1.412       .  A
C415       Br926   1.934       .  S
C416        C417   1.443       .  A
C417        C418   1.407       .  A
C417       Br424   1.935       .  S
C418        C419   1.390       .  A
C418       Br423   1.938       .  S
C419        C420   1.396       .  A
C420       Br421   1.929   1_655  S
Br422       C919   1.934   1_554  S
C425        C426   1.411       .  A
C425        C430   1.404       .  A
C425       Br432   1.879       .  S
C426        C427   1.436       .  A
C427        C428   1.420       .  A
C427       Br434   1.933       .  S
C428        C429   1.406       .  A
C428       Br433   1.930       .  S
C429        C430   1.398       .  A
C430       Br431   1.927       .  S
C435        C436   1.389       .  A
C435        C440   1.406       .  A
C435       Br442   1.920       .  S
C436        C437   1.408       .  A
C437        C438   1.427       .  A
C437       Br444   1.923   1_455  S
C438        C439   1.436       .  A
C438       Br443   1.910       .  S
C439        C440   1.388       .  A
C440       Br441   1.909       .  S
C445        C446   1.415       .  A
C445        C450   1.421       .  A
C445       Br452   1.926       .  S
C446        C447   1.416       .  A
C447        C448   1.409       .  A
C447       Br454   1.928       .  S
C448        C449   1.407       .  A
C448       Br453   1.899       .  S
C449        C450   1.422       .  A
C450       Br451   1.916       .  S
C455        C456   1.436       .  A
C455        C460   1.421       .  A
C455       Br462   1.924       .  S
C456        C457   1.403       .  A
C457        C458   1.385       .  A
C457       Br464   1.926       .  S
C458        C459   1.391       .  A
C458       Br463   1.898       .  S
C459        C460   1.409       .  A
C460       Br461   1.927   1_565  S
C465        C466   1.419       .  A
C465        C470   1.397       .  A
C465       Br472   1.911       .  S
C466        C467   1.425       .  A
C467        C468   1.415       .  A
C467       Br978   1.923   1_554  S
C468        C469   1.405       .  A
C468       Br473   1.926       .  S
C469        C470   1.396       .  A
C470       Br471   1.923       .  S
Br474       C971   1.923       .  S
C475        C476   1.398       .  A
C475        C480   1.406       .  A
C475       Br482   1.902       .  S
C476        C477   1.412       .  A
C477        C478   1.418       .  A
C477       Br484   1.927   1_455  S
C478        C479   1.417       .  A
C478       Br987   1.919   1_554  S
C479        C480   1.428       .  A
C480       Br481   1.937       .  S
Br483       C982   1.919       .  S
C485        C486   1.382       .  A
C485        C490   1.404       .  A
C485       Br492   1.923       .  S
C486        C487   1.399       .  A
C487        C488   1.412       .  A
C487       Br494   1.926       .  S
C488        C489   1.429       .  A
C488       Br997   1.925       .  S
C489        C490   1.412       .  A
C490       Br491   1.880       .  S
Br493       C992   1.925   1_554  S
C495        C496   1.405       .  A
C495        C500   1.420       .  A
C495       Br502   1.926   1_565  S
C496        C497   1.396       .  A
C497        C498   1.406       .  A
C497       Br504   1.922       .  S
C498        C499   1.405       .  A
C498       Br503   1.873       .  S
C499        C500   1.425       .  A
C500      Br1005   1.915       .  S
Br501      C1004   1.915   1_554  S
C505        C506   1.532       .  S
C505        C511   1.521       .  S
C505        C509   1.540       .  S
C505        C970   1.557       .  S
C507        C508   1.575       .  S
C507       C1003   1.524       .  S
C508        C512   1.588       .  S
C508        H514   1.105       .  S
C509        H515   1.062       .  S
C509        C510   1.356       .  D
C510        C983   1.518       .  S
C512        C993   1.526       .  S
C517        C518   1.529       .  S
C517        C523   1.519       .  S
C517        C521   1.566       .  S
C517        C960   1.545       .  S
C518        H525   1.073       .  S
C518        C519   1.366       .  D
C519        C520   1.583       .  S
C519        C930   1.539       .  S
C520        C524   1.578       .  S
C520        C522   1.537       .  S
C520        H526   1.092       .  S
C521        H527   1.069       .  S
C521        C522   1.380       .  D
C522        C953   1.529       .  S
C523        H528   1.083       .  S
C523        C524   1.352       .  D
C524        C943   1.513       .  S
C529        C530   1.532   1_556  S
C529        C535   1.542       .  S
C529        C533   1.536       .  S
C529        C920   1.562       .  S
C530        H537   1.085       .  S
C531        C532   1.578       .  S
C531        C890   1.524       .  S
C532        C536   1.555       .  S
C532        H538   1.101       .  S
C533        H539   1.076       .  S
C533        C534   1.355       .  D
C534        C910   1.501       .  S
C535        H540   1.086       .  S
C536        C900   1.507       .  S
C541        C542   1.524       .  S
C541        C547   1.531       .  S
C541        C545   1.545       .  S
C541        C880   1.560       .  S
C542        H549   1.069       .  S
C542        C543   1.374       .  D
C543        C544   1.563       .  S
C543        C853   1.528       .  S
C544        C548   1.561       .  S
C544        C546   1.554       .  S
C544        H550   1.103       .  S
C545        H551   1.085       .  S
C545        C546   1.370       .  D
C546        C870   1.513       .  S
C547        H552   1.081       .  S
C547        C548   1.368       .  D
C548        C860   1.499       .  S
N553        C557   1.373   1_455  A
N553        C554   1.377   1_455  A
N553        C980   1.454       .  S
C554        C555   1.390       .  A
C554        C645   1.505   1_655  S
C555        C556   1.357       .  A
C555        H558   1.083       .  S
C556        C557   1.371       .  A
C556        H559   1.083       .  S
C557        C760   1.476   1_655  S
N560        C564   1.366   1_455  A
N560        C561   1.367   1_455  A
N560        C940   1.440       .  S
C561        C562   1.387       .  A
C561        C786   1.491   1_655  S
C562        C563   1.353       .  A
C562        H565   1.083       .  S
C563        C564   1.379       .  A
C563        H566   1.083       .  S
C564        C664   1.475       .  S
N567        C571   1.366       .  A
N567        C568   1.367       .  A
N567        C903   1.451       .  S
C568        C569   1.387       .  A
C568        C820   1.485       .  S
C569        C570   1.362       .  A
C569        H572   1.083       .  S
C570        C571   1.374       .  A
C570        H573   1.083       .  S
C571        C762   1.464       .  S
N574        C578   1.370       .  A
N574        C575   1.364       .  A
N574        C863   1.437       .  S
C575        C576   1.376       .  A
C575        C843   1.477       .  S
C576        C577   1.370       .  A
C576        H579   1.083       .  S
C577        C578   1.388       .  A
C577        H580   1.083       .  S
C578        C784   1.509       .  S
N581        C585   1.367       .  A
N581        C582   1.366       .  A
N581        C973   1.438       .  S
C582        C583   1.387       .  A
C582        C703   1.491       .  S
C583        C584   1.361       .  A
C583        H586   1.083       .  S
C584        C585   1.379       .  A
C584        H587   1.083       .  S
C585        C825   1.489       .  S
N588        C592   1.368       .  A
N588        C589   1.367       .  A
N588        C933   1.447       .  S
C589        C590   1.376       .  A
C589        C845   1.475       .  S
C590        C591   1.365       .  A
C590        H593   1.083       .  S
C591        C592   1.386       .  A
C591        H594   1.083       .  S
C592        C726   1.489       .  S
N595        C599   1.374       .  A
N595        C596   1.370       .  A
N595        C893   1.455       .  S
C596        C597   1.378   1_545  A
C596        C705   1.480       .  S
C597        C598   1.357       .  A
C597        H600   1.083       .  S
C598        C599   1.386   1_565  A
C598        H601   1.083       .  S
C599        C643   1.496       .  S
N602        C606   1.380   1_545  A
N602        C603   1.377   1_545  A
N602        C850   1.453       .  S
C603        C604   1.383       .  A
C603        C724   1.499       .  S
C604        C605   1.357       .  A
C604        H607   1.083       .  S
C605        C606   1.380       .  A
C605        H608   1.083       .  S
C606        C663   1.499       .  S
N609        C613   1.367   1_655  A
N609        C610   1.362   1_655  A
N609        C883   1.447       .  S
C610        C611   1.373       .  A
C610        C641   1.461       .  S
C611        C612   1.365       .  A
C611        H614   1.083       .  S
C612        C613   1.389       .  A
C612        H615   1.083       .  S
C613        C763   1.492   1_455  S
N616        C620   1.360   1_655  A
N616        C617   1.360   1_655  A
N616        C923   1.435       .  S
C617        C618   1.382       .  A
C617        C668   1.480       .  S
C618        C619   1.377       .  A
C618        H621   1.082       .  S
C619        C620   1.381       .  A
C619        H622   1.082       .  S
C620        C783   1.481   1_455  S
Zn623       O627   1.967   1_565  S
Zn623       O628   2.065   1_565  S
Zn623       O632   2.021       .  S
Zn623       O639   2.138       .  S
Zn624       O627   1.990       .  S
Zn624       O629   2.026       .  S
Zn624       O631   2.050       .  S
Zn624       O635   2.061       .  S
Zn625       O627   1.972   1_655  S
Zn625       O630   2.054       .  S
Zn625       O633   1.991       .  S
Zn625       O636   2.102       .  S
Zn626       O627   1.893   1_665  S
Zn626       O634   1.983       .  S
Zn626       O637   2.029       .  S
Zn626       O638   1.959       .  S
O628        C640   1.282       .  A
O629        C641   1.274       .  A
O630        C642   1.276       .  A
O631        C640   1.275       .  A
O632        C642   1.271   1_465  A
O633        C641   1.272   1_655  A
O634        C643   1.272   1_565  A
O635        C644   1.277       .  A
O636        C643   1.277       .  A
O637        C644   1.271   1_665  A
O638        C645   1.271   1_655  A
O639        C645   1.285       .  A
C640        C670   1.497       .  S
C644        C665   1.478   1_545  S
Zn646       O650   1.965   1_645  S
Zn646       O651   2.102       .  S
Zn646       O655   2.037       .  S
Zn646       O662   2.047       .  S
Zn647       O650   1.929   1_655  S
Zn647       O652   1.963       .  S
Zn647       O654   1.972       .  S
Zn647       O658   2.031       .  S
Zn648       O650   1.997       .  S
Zn648       O653   2.056       .  S
Zn648       O656   2.045       .  S
Zn648       O659   2.025       .  S
Zn649       O650   1.970   1_545  S
Zn649       O657   2.005       .  S
Zn649       O660   2.040       .  S
Zn649       O661   2.026       .  S
O651        C663   1.277   1_545  A
O652        C664   1.271       .  A
O653        C665   1.276       .  A
O654        C663   1.268       .  A
O655        C665   1.274   1_645  A
O656        C664   1.273   1_455  A
O657        C666   1.272   1_545  A
O658        C667   1.271   1_565  A
O659        C666   1.275       .  A
O660        C667   1.274   1_455  A
O661        C668   1.273       .  A
O662        C668   1.280   1_655  A
C666        C677   1.458       .  S
N669        C673   1.356       .  A
N669        C670   1.366       .  A
N669        C963   1.433   1_545  S
C670        C671   1.382       .  A
C671        C672   1.383       .  A
C671        H674   1.082       .  S
C672        C673   1.382       .  A
C672        H675   1.082       .  S
C673        C701   1.486       .  S
N676        C680   1.358       .  A
N676        C677   1.358       .  A
N676       C1000   1.445       .  S
C677        C678   1.379   1_565  A
C678        C679   1.367       .  A
C678        H681   1.083       .  S
C679        C680   1.379   1_545  A
C679        H682   1.083       .  S
C680        C728   1.460       .  S
Zn683       O687   1.995       .  S
Zn683       O688   2.021       .  S
Zn683       O692   2.043       .  S
Zn683       O699   2.032       .  S
Zn684       O687   1.971       .  S
Zn684       O689   2.041       .  S
Zn684       O691   2.031       .  S
Zn684       O695   2.092       .  S
Zn685       O687   2.005   1_565  S
Zn685       O690   2.048       .  S
Zn685       O693   2.071       .  S
Zn685       O696   2.113       .  S
Zn686       O687   1.912   1_565  S
Zn686       O694   1.963       .  S
Zn686       O697   2.025       .  S
Zn686       O698   1.992       .  S
O688        C700   1.275       .  A
O689        C701   1.277       .  A
O690        C702   1.277       .  A
O691        C700   1.272       .  A
O692        C702   1.276   1_545  A
O693        C701   1.282   1_565  A
O694        C703   1.271       .  A
O695        C704   1.280       .  A
O696        C703   1.280       .  A
O697        C704   1.270   1_565  A
O698        C705   1.273   1_565  A
O699        C705   1.270       .  A
C700        C733   1.473       .  S
C704        C727   1.487       .  S
Zn706       O710   1.954   1_545  S
Zn706       O711   2.002       .  S
Zn706       O715   2.024       .  S
Zn706       O722   2.003       .  S
Zn707       O710   1.995   1_545  S
Zn707       O712   2.081       .  S
Zn707       O714   2.045       .  S
Zn707       O718   2.072       .  S
Zn708       O710   1.925       .  S
Zn708       O713   2.056       .  S
Zn708       O716   1.992       .  S
Zn708       O719   1.999       .  S
Zn709       O710   1.990       .  S
Zn709       O717   2.073       .  S
Zn709       O720   2.063       .  S
Zn709       O721   2.026       .  S
O711        C723   1.272       .  A
O712        C724   1.276   1_545  A
O713        C725   1.275       .  A
O714        C723   1.276       .  A
O715        C725   1.271   1_545  A
O716        C724   1.274       .  A
O717        C726   1.277       .  A
O718        C727   1.280       .  A
O719        C726   1.275       .  A
O720        C727   1.280   1_565  A
O721        C728   1.275       .  A
O722        C728   1.270   1_545  A
C723        C737   1.468       .  S
N729        C733   1.378       .  A
N729        C730   1.372       .  A
N729        C873   1.475       .  S
C730        C731   1.374       .  A
C730        C821   1.450       .  S
C731        C732   1.355       .  A
C731        H734   1.083       .  S
C732        C733   1.379       .  A
C732        H735   1.083       .  S
N736        C740   1.363       .  A
N736        C737   1.358       .  A
N736        C913   1.440       .  S
C737        C738   1.377       .  A
C738        C739   1.369       .  A
C738        H741   1.083       .  S
C739        C740   1.385       .  A
C739        H742   1.083       .  S
C740        C847   1.485       .  S
Zn743       O747   1.973       .  S
Zn743       O748   1.997       .  S
Zn743       O752   2.013       .  S
Zn743       O759   2.009       .  S
Zn744       O747   2.003   1_455  S
Zn744       O749   2.084       .  S
Zn744       O751   2.085       .  S
Zn744       O755   2.071       .  S
Zn745       O747   1.977       .  S
Zn745       O750   2.003       .  S
Zn745       O753   2.061       .  S
Zn745       O756   2.099       .  S
Zn746       O747   1.909   1_455  S
Zn746       O754   1.959       .  S
Zn746       O757   1.955       .  S
Zn746       O758   2.006       .  S
O748        C760   1.272   1_655  A
O749        C761   1.283   1_455  A
O750        C762   1.272       .  A
O751        C760   1.282       .  A
O752        C762   1.271       .  A
O753        C761   1.280       .  A
O754        C763   1.267   1_455  A
O755        C764   1.276       .  A
O756        C763   1.278       .  A
O757        C764   1.270       .  A
O758        C765   1.268   1_455  A
O759        C765   1.269       .  A
C761        C787   1.497       .  S
C764        C790   1.483       .  S
Zn766       O770   1.987   1_455  S
Zn766       O771   2.004       .  S
Zn766       O775   2.006       .  S
Zn766       O782   1.989       .  S
Zn767       O770   1.981       .  S
Zn767       O772   2.150       .  S
Zn767       O774   2.083       .  S
Zn767       O778   2.070       .  S
Zn768       O770   1.912       .  S
Zn768       O773   2.008       .  S
Zn768       O776   1.960       .  S
Zn768       O779   1.926       .  S
Zn769       O770   2.003   1_455  S
Zn769       O777   2.132       .  S
Zn769       O780   2.075       .  S
Zn769       O781   2.087       .  S
O771        C783   1.269   1_455  A
O772        C784   1.288       .  A
O773        C785   1.268       .  A
O774        C783   1.282       .  A
O775        C785   1.269   1_455  A
O776        C784   1.267       .  A
O777        C786   1.280       .  A
O778        C787   1.281       .  A
O779        C786   1.265   1_655  A
O780        C787   1.281   1_455  A
O781        C788   1.285       .  A
O782        C788   1.266       .  A
C788        C797   1.485       .  S
N789        C793   1.378       .  A
N789        C790   1.374       .  A
N789        C950   1.465       .  S
C790        C791   1.384       .  A
C791        C792   1.351       .  A
C791        H794   1.083       .  S
C792        C793   1.374       .  A
C792        H795   1.083       .  S
C793        C823   1.472       .  S
N796        C800   1.355       .  A
N796        C797   1.364       .  A
N796        C990   1.432       .  S
C797        C798   1.378       .  A
C798        C799   1.375       .  A
C798        H801   1.082       .  S
C799        C800   1.387       .  A
C799        H802   1.082       .  S
C800        C846   1.488       .  S
Zn803       O807   1.921       .  S
Zn803       O808   1.978       .  S
Zn803       O812   2.034       .  S
Zn803       O819   1.980       .  S
Zn804       O807   1.986       .  S
Zn804       O809   1.997       .  S
Zn804       O811   2.069       .  S
Zn804       O815   2.023       .  S
Zn805       O807   1.969       .  S
Zn805       O810   2.043       .  S
Zn805       O813   2.025       .  S
Zn805       O816   1.999       .  S
Zn806       O807   1.992       .  S
Zn806       O814   2.045       .  S
Zn806       O817   2.069       .  S
Zn806       O818   2.078       .  S
O808        C820   1.271       .  A
O809        C821   1.273       .  A
O810        C822   1.273       .  A
O811        C820   1.274       .  A
O812        C822   1.273       .  A
O813        C821   1.275       .  A
O814        C823   1.274       .  A
O815        C824   1.274       .  A
O816        C823   1.272       .  A
O817        C824   1.280       .  A
O818        C825   1.278       .  A
O819        C825   1.272       .  A
C822        C848   1.482       .  S
Zn826       O830   1.957       .  S
Zn826       O831   1.999       .  S
Zn826       O835   2.002       .  S
Zn826       O842   2.036       .  S
Zn827       O830   1.993       .  S
Zn827       O832   2.046       .  S
Zn827       O834   2.073       .  S
Zn827       O838   2.077       .  S
Zn828       O830   1.980       .  S
Zn828       O833   2.047       .  S
Zn828       O836   2.045       .  S
Zn828       O839   2.087       .  S
Zn829       O830   1.936       .  S
Zn829       O837   1.976       .  S
Zn829       O840   1.975       .  S
Zn829       O841   2.044       .  S
O831        C843   1.272       .  A
O832        C844   1.278       .  A
O833        C845   1.279       .  A
O834        C843   1.279       .  A
O835        C845   1.269       .  A
O836        C844   1.276       .  A
O837        C846   1.269       .  A
O838        C847   1.279       .  A
O839        C846   1.281       .  A
O840        C847   1.271       .  A
O841        C848   1.275       .  A
O842        C848   1.274       .  A
C849        C850   1.415       .  A
C849        C854   1.413       .  A
C849       Br856   1.922       .  S
C850        C851   1.399       .  A
C851        C852   1.403       .  A
C851       Br858   1.920       .  S
C852        C853   1.419       .  A
C852       Br857   1.930       .  S
C853        C854   1.421       .  A
C854       Br855   1.911       .  S
C859        C860   1.408       .  A
C859        C864   1.408       .  A
C859       Br866   1.909       .  S
C860        C861   1.415       .  A
C861        C862   1.390       .  A
C861       Br868   1.880       .  S
C862        C863   1.396       .  A
C862       Br867   1.943       .  S
C863        C864   1.415       .  A
C864       Br865   1.923       .  S
C869        C870   1.414       .  A
C869        C874   1.405       .  A
C869       Br876   1.918       .  S
C870        C871   1.418       .  A
C871        C872   1.413       .  A
C871       Br878   1.909       .  S
C872        C873   1.405       .  A
C872       Br877   1.923       .  S
C873        C874   1.417       .  A
C874       Br875   1.932       .  S
C879        C880   1.415       .  A
C879        C884   1.400       .  A
C879       Br886   1.921       .  S
C880        C881   1.432       .  A
C881        C882   1.416       .  A
C881       Br888   1.912       .  S
C882        C883   1.404       .  A
C882       Br887   1.938   1_655  S
C883        C884   1.412       .  A
C884       Br885   1.932       .  S
C889        C890   1.433       .  A
C889        C894   1.415       .  A
C890        C891   1.418       .  A
C891        C892   1.415       .  A
C891       Br898   1.929       .  S
C892        C893   1.415       .  A
C892       Br897   1.918       .  S
C893        C894   1.400       .  A
C894       Br895   1.930   1_545  S
C899        C900   1.414       .  A
C899        C904   1.419       .  A
C900        C901   1.407       .  A
C901        C902   1.405       .  A
C901       Br908   1.898       .  S
C902        C903   1.410       .  A
C902       Br907   1.931       .  S
C903        C904   1.413       .  A
C904       Br905   1.927       .  S
C909        C910   1.412       .  A
C909        C914   1.414       .  A
C910        C911   1.419       .  A
C911        C912   1.396       .  A
C911       Br918   1.909       .  S
C912        C913   1.397       .  A
C912       Br917   1.933       .  S
C913        C914   1.415       .  A
C914       Br915   1.926       .  S
C919        C920   1.436       .  A
C919        C924   1.412       .  A
C920        C921   1.443       .  A
C921        C922   1.407       .  A
C921       Br928   1.935       .  S
C922        C923   1.390       .  A
C922       Br927   1.938       .  S
C923        C924   1.396       .  A
C924       Br925   1.929   1_655  S
C929        C930   1.411       .  A
C929        C934   1.404       .  A
C929       Br936   1.879       .  S
C930        C931   1.436       .  A
C931        C932   1.420       .  A
C931       Br938   1.933       .  S
C932        C933   1.406       .  A
C932       Br937   1.930       .  S
C933        C934   1.398       .  A
C934       Br935   1.927       .  S
C939        C940   1.389       .  A
C939        C944   1.406       .  A
C939       Br946   1.920       .  S
C940        C941   1.408       .  A
C941        C942   1.427       .  A
C941       Br948   1.923   1_455  S
C942        C943   1.436       .  A
C942       Br947   1.910       .  S
C943        C944   1.388       .  A
C944       Br945   1.909       .  S
C949        C950   1.415       .  A
C949        C954   1.421       .  A
C949       Br956   1.926       .  S
C950        C951   1.416       .  A
C951        C952   1.409       .  A
C951       Br958   1.928       .  S
C952        C953   1.407       .  A
C952       Br957   1.899       .  S
C953        C954   1.422       .  A
C954       Br955   1.916       .  S
C959        C960   1.436       .  A
C959        C964   1.421       .  A
C959       Br966   1.924       .  S
C960        C961   1.403       .  A
C961        C962   1.385       .  A
C961       Br968   1.926       .  S
C962        C963   1.391       .  A
C962       Br967   1.898       .  S
C963        C964   1.409       .  A
C964       Br965   1.927   1_565  S
C969        C970   1.419       .  A
C969        C974   1.397       .  A
C969       Br976   1.911       .  S
C970        C971   1.425       .  A
C971        C972   1.415       .  A
C972        C973   1.405       .  A
C972       Br977   1.926       .  S
C973        C974   1.396       .  A
C974       Br975   1.923       .  S
C979        C980   1.398       .  A
C979        C984   1.406       .  A
C979       Br986   1.902       .  S
C980        C981   1.412       .  A
C981        C982   1.418       .  A
C981       Br988   1.927   1_455  S
C982        C983   1.417       .  A
C983        C984   1.428       .  A
C984       Br985   1.937       .  S
C989        C990   1.382       .  A
C989        C994   1.404       .  A
C989       Br996   1.923       .  S
C990        C991   1.399       .  A
C991        C992   1.412       .  A
C991       Br998   1.926       .  S
C992        C993   1.429       .  A
C993        C994   1.412       .  A
C994       Br995   1.880       .  S
C999       C1000   1.405       .  A
C999       C1004   1.420       .  A
C999      Br1006   1.926   1_565  S
C1000      C1001   1.396       .  A
C1001      C1002   1.406       .  A
C1001     Br1008   1.922       .  S
C1002      C1003   1.405       .  A
C1002     Br1007   1.873       .  S
C1003      C1004   1.425       .  A
