geometry optimzed in LAMMPS
_audit_creation_date              2020-12-01 
_audit_creation_method            'lammps2cif' 
_symmetry_space_group_name_H-M    'P1' 
_symmetry_Int_Tables_number       1 
_symmetry_cell_setting            triclinic 
loop_ 
_symmetry_equiv_pos_as_xyz 
  x,y,z 
_cell_length_a                    48.75336165 
_cell_length_b                    49.156801185491126 
_cell_length_c                    48.98668595088751 
_cell_angle_alpha                 89.90360807224262 
_cell_angle_beta                  90.05615309845128 
_cell_angle_gamma                 89.93576179489753 
loop_ 
_atom_site_label 
_atom_site_type_symbol 
_atom_site_fract_x 
_atom_site_fract_y 
_atom_site_fract_z 
_atom_site_charge 
C1          C  0.57993232  0.88944333  0.70110777     0.80500
N2          N  0.58111184  0.91713255  0.69920427    -0.77800
C3          C  0.55729845  0.93164536  0.69739214     0.82900
N4          N  0.53287231  0.91825410  0.69679142    -0.77700
C5          C  0.53168113  0.89076332  0.69795401     0.83000
N6          N  0.55534672  0.87658946  0.70036063    -0.79500
C7          C  0.57738906  0.00511095  0.69539183     0.80500
N8          N  0.57985821  0.97738076  0.69611805    -0.77800
C9          C  0.55669123  0.96167867  0.69589334     0.82900
N10         N  0.53166036  0.97383677  0.69501739    -0.77700
C11         C  0.52917465  0.00121115  0.69454254     0.83000
N12         N  0.55211192  0.01666032  0.69469897    -0.79500
C13         C  0.93601885  0.69980825  0.52066437     0.80500
N14         N  0.96391606  0.70012871  0.52235775    -0.77800
C15         C  0.97915283  0.69998960  0.49901098     0.82900
N16         N  0.96628906  0.69965334  0.47429522    -0.77700
C17         C  0.93848182  0.69949889  0.47251044     0.83000
N18         N  0.92365648  0.69926419  0.49586813    -0.79500
C19         C  0.05175711  0.70046672  0.52322960     0.80500
N20         N  0.02376197  0.70034209  0.52371318    -0.77800
C21         C  0.00944573  0.70026501  0.49972214     0.82900
N22         N  0.02326142  0.70044727  0.47562088    -0.77700
C23         C  0.05103072  0.70102390  0.47511474     0.83000
N24         N  0.06514050  0.70083822  0.49893527    -0.79500
C25         C  0.55248279  0.69699334  0.35475041     0.80500
N26         N  0.56461988  0.69684400  0.37965136    -0.77800
C27         C  0.54953607  0.69783541  0.40276620     0.82900
N28         N  0.52181589  0.69839270  0.40086001    -0.77700
C29         C  0.50907783  0.69856401  0.37609170     0.83000
N30         N  0.52451148  0.69787985  0.35278784    -0.79500
C31         C  0.43576143  0.70059161  0.35343492     0.80500
N32         N  0.46371448  0.69875901  0.35211865    -0.77800
C33         C  0.47870659  0.69992349  0.37570070     0.82900
N34         N  0.46554328  0.70279959  0.40003022    -0.77700
C35         C  0.43788229  0.70495466  0.40141868     0.83000
N36         N  0.42328048  0.70381367  0.37793255    -0.79500
C37         C  0.73691469  0.53109038  0.88395038     0.80500
N38         N  0.73299170  0.53215288  0.91145140    -0.77800
C39         C  0.72956337  0.50859652  0.92583404     0.82900
N40         N  0.72967262  0.48428776  0.91241245    -0.77700
C41         C  0.73304683  0.48319176  0.88488590     0.83000
N42         N  0.73687786  0.50675226  0.87104896    -0.79500
C43         C  0.72148215  0.53239521  0.99760332     0.80500
N44         N  0.72170178  0.50824596  0.01095195    -0.77800
C45         C  0.72393947  0.48439800  0.99742874     0.82900
N46         N  0.72630840  0.48489286  0.96977875    -0.77700
C47         C  0.72618210  0.50891717  0.95584745     0.83000
N48         N  0.72401082  0.53281621  0.96988379    -0.79500
O49         O  0.65353568  0.29566870  0.71152391    -0.78200
C50         C  0.71403238  0.31271820  0.77092947     0.82800
O51         O  0.72882111  0.24463762  0.67453286    -0.79300
O52         O  0.74779687  0.23065171  0.77445923    -0.80800
O53         O  0.64513163  0.22555583  0.77489524    -0.80600
O54         O  0.62827123  0.25895278  0.71871866    -0.79200
Zn55       Zn  0.69293387  0.28507980  0.71903242     1.55700
O56         O  0.68199734  0.23429493  0.80021702    -0.80600
Cd57       Cd  0.65726604  0.23249847  0.73495116     1.59700
Cd58       Cd  0.71948680  0.22471619  0.71118926     1.59600
O59         O  0.65635662  0.19536077  0.71497034    -0.80600
O60         O  0.69501389  0.24849114  0.73410675    -1.91100
Cd61       Cd  0.70990774  0.25004927  0.77218835     1.59900
O62         O  0.69981193  0.18761282  0.70278005    -0.80600
O63         O  0.71617041  0.29021367  0.78374489    -0.79200
C64         C  0.72455510  0.26920147  0.66705283     0.83300
C65         C  0.63033281  0.28385020  0.71164714     0.83000
O66         O  0.70697065  0.31352443  0.74584294    -0.78200
C67         C  0.65702363  0.22674789  0.79803155     0.83800
O68         O  0.71260364  0.28632982  0.68261507    -0.78300
C69         C  0.67479612  0.18000313  0.70476911     0.83900
C70         C  0.76368591  0.22010104  0.75665642     0.84200
O71         O  0.75629919  0.21711959  0.73179844    -0.80700
O72         O  0.27145109  0.78744858  0.59459733    -0.78200
C73         C  0.33081283  0.72791253  0.57675995     0.82800
O74         O  0.23294017  0.71832926  0.64726952    -0.79300
O75         O  0.33285118  0.69296345  0.65822263    -0.80800
O76         O  0.33834088  0.79478765  0.66268775    -0.80600
O77         O  0.28109431  0.81296530  0.63069674    -0.79200
Zn78       Zn  0.27915172  0.74866142  0.60514477     1.55700
O79         O  0.36175407  0.75646023  0.65578711    -0.80600
Cd80       Cd  0.29785951  0.78417156  0.65671638     1.59700
Cd81       Cd  0.27123846  0.72402929  0.66600717     1.59600
O82         O  0.28006001  0.78590532  0.69476907    -0.80600
O83         O  0.29490850  0.74675662  0.64142304    -1.91100
Cd84       Cd  0.33238219  0.73064547  0.63938815     1.59900
O85         O  0.26562726  0.74388424  0.70343402    -0.80600
O86         O  0.34386882  0.72520522  0.59913677    -0.79200
C87         C  0.22538161  0.72140964  0.62246527     0.83300
C88         C  0.27243561  0.81050716  0.60626781     0.83000
O89         O  0.30559987  0.73489885  0.57625615    -0.78200
C90         C  0.36080720  0.78155111  0.66229539     0.83800
O91         O  0.24203018  0.73048108  0.60450445    -0.78300
C92         C  0.26966850  0.76841274  0.71099149     0.83900
C93         C  0.31483600  0.67801354  0.66975479     0.84200
O94         O  0.29028275  0.68640620  0.67348206    -0.80700
C95         C  0.07405243  0.49883102  0.19083897     0.80500
N96         N  0.04898463  0.51064710  0.18847738    -0.77800
C97         C  0.02584726  0.49633959  0.19355555     0.82900
N98         N  0.02784116  0.46969600  0.20050134    -0.77700
C99         C  0.05278993  0.45732823  0.20249782     0.83000
N100        N  0.07604330  0.47204983  0.19791852    -0.79500
C101        C  0.07737377  0.38628503  0.21398920     0.80500
N102        N  0.07779547  0.41371574  0.20954448    -0.77800
C103        C  0.05374302  0.42790494  0.20858775     0.82900
N104        N  0.02961274  0.41437827  0.21102876    -0.77700
C105        C  0.02891152  0.38706729  0.21483448     0.83000
N106        N  0.05291657  0.37318290  0.21618354    -0.79500
O107        O  0.83397290  0.60202323  0.20872083    -0.78200
C108        C  0.77672493  0.58835168  0.27241407     0.82800
O109        O  0.76296826  0.65573435  0.17334061    -0.79300
O110        O  0.74451353  0.66943806  0.27371460    -0.80800
O111        O  0.84807839  0.67186254  0.27213453    -0.80600
O112        O  0.86118268  0.63763714  0.21464172    -0.79200
Zn113      Zn  0.79546582  0.61376405  0.21831993     1.55700
O114        O  0.81055711  0.66743945  0.29766590    -0.80600
Cd115      Cd  0.83413633  0.66514039  0.23259854     1.59700
Cd116      Cd  0.77137966  0.67439510  0.21058221     1.59600
O117        O  0.83463240  0.70314618  0.21426761    -0.80600
O118        O  0.79591346  0.65042271  0.23285981    -1.91100
Cd119      Cd  0.78229933  0.65054454  0.27109337     1.59900
O120        O  0.79074259  0.71164173  0.20427995    -0.80600
O121        O  0.77664959  0.61123390  0.28450906    -0.79200
C122        C  0.76421565  0.63077009  0.16634684     0.83300
C123        C  0.85767312  0.61290837  0.20761484     0.83000
O124        O  0.78202641  0.58643174  0.24692280    -0.78200
C125        C  0.83598227  0.67301876  0.29516190     0.83800
O126        O  0.77411524  0.61282643  0.18255955    -0.78300
C127        C  0.81568267  0.71929827  0.20633951     0.83900
C128        C  0.72787549  0.67925040  0.25617358     0.84200
O129        O  0.73432392  0.68141848  0.23098116    -0.80700
C130        C  0.93772981  0.22059808  0.85460879     0.80500
N131        N  0.96556199  0.21779809  0.85472336    -0.77800
C132        C  0.97949676  0.21868065  0.87891181     0.82900
N133        N  0.96540369  0.22199569  0.90264528    -0.77700
C134        C  0.93773533  0.22489585  0.90257625     0.83000
N135        N  0.92413591  0.22407521  0.87846934    -0.79500
C136        C  0.05285221  0.21252815  0.85882785     0.80500
N137        N  0.02505611  0.21460584  0.85692310    -0.77800
C138        C  0.00963918  0.21583462  0.88010231     0.82900
N139        N  0.02219816  0.21459391  0.90494427    -0.77700
C140        C  0.04987240  0.21212701  0.90692081     0.83000
N141        N  0.06499729  0.21135408  0.88372304    -0.79500
O142        O  0.76614877  0.29327621  0.09697260    -0.78200
C143        C  0.82776064  0.23949574  0.07567275     0.82800
O144        O  0.73252258  0.22047212  0.14757553    -0.79300
O145        O  0.83274269  0.19858595  0.15153096    -0.80800
O146        O  0.83295394  0.29981686  0.16861542    -0.80600
O147        O  0.77685893  0.31888327  0.13266284    -0.79200
Zn148      Zn  0.77569192  0.25466214  0.10578731     1.55700
O149        O  0.85778702  0.26308578  0.15836172    -0.80600
Cd150      Cd  0.79300783  0.28924436  0.15878107     1.59700
Cd151      Cd  0.77086585  0.22693340  0.16540364     1.59600
O152        O  0.77278474  0.28832894  0.19587797    -0.80600
O153        O  0.79217135  0.25240530  0.14165820    -1.91100
Cd154      Cd  0.83022699  0.23837211  0.13806670     1.59900
O155        O  0.76524684  0.24424971  0.20407461    -0.80600
O156        O  0.84165949  0.23768129  0.09760685    -0.79200
C157        C  0.72477786  0.22315240  0.12279709     0.83300
C158        C  0.76737674  0.31638135  0.10848034     0.83000
O159        O  0.80200638  0.24392091  0.07582513    -0.78200
C160        C  0.85569649  0.28699567  0.16822572     0.83800
O161        O  0.74020926  0.23364552  0.10459872    -0.78300
C162        C  0.76532817  0.26911069  0.21176027     0.83900
C163        C  0.81560448  0.18189206  0.16174747     0.84200
O164        O  0.79133680  0.18941716  0.16825470    -0.80700
C165        C  0.43613737  0.20635351  0.02422301     0.80500
N166        N  0.42285128  0.20330733  0.00008545    -0.77800
C167        C  0.43687145  0.20080593  0.97642307     0.82900
N168        N  0.46463281  0.20191963  0.97686409    -0.77700
C169        C  0.47848610  0.20504765  0.00077746     0.83000
N170        N  0.46417105  0.20701344  0.02472048    -0.79500
C171        C  0.55208432  0.21184510  0.02067630     0.80500
N172        N  0.56405566  0.21184421  0.99574112    -0.77800
C173        C  0.54898326  0.20909837  0.97273973     0.82900
N174        N  0.52128967  0.20707614  0.97477562    -0.77700
C175        C  0.50876413  0.20714728  0.99968614     0.83000
N176        N  0.52428995  0.20937800  0.02279861    -0.79500
C177        C  0.24472479  0.86614956  0.88398844     0.80500
N178        N  0.24720351  0.86501615  0.91171645    -0.77800
C179        C  0.24831831  0.88862740  0.92629837     0.82900
N180        N  0.24740846  0.91296523  0.91297430    -0.77700
C181        C  0.24523349  0.91409475  0.88542238     0.83000
N182        N  0.24361074  0.89061212  0.87119902    -0.79500
C183        C  0.25282564  0.86731883  0.99940782     0.80500
N184        N  0.25142638  0.86557302  0.97159540    -0.77800
C185        C  0.25003328  0.88886627  0.95637860     0.82900
N186        N  0.24953523  0.91339470  0.96910656    -0.77700
C187        C  0.25097156  0.91515417  0.99662881     0.83000
N188        N  0.25253182  0.89207895  0.01158185    -0.79500
O189        O  0.33471397  0.09958054  0.71764480    -0.78200
C190        C  0.27022390  0.08252259  0.77283583     0.82800
O191        O  0.26165061  0.15023019  0.67689640    -0.79300
O192        O  0.23955606  0.16459029  0.77662536    -0.80800
O193        O  0.34062778  0.16937857  0.78217647    -0.80600
O194        O  0.35988195  0.13620845  0.72668073    -0.79200
Zn195      Zn  0.29526946  0.11023250  0.72305956     1.55700
O196        O  0.30276786  0.16008541  0.80544085    -0.80600
Cd197      Cd  0.33026743  0.16265800  0.74169941     1.59700
Cd198      Cd  0.26918608  0.17026969  0.71426035     1.59600
O199        O  0.33134536  0.20057877  0.72319076    -0.80600
O200        O  0.29276622  0.14660638  0.73832453    -1.91100
Cd201      Cd  0.27662546  0.14459315  0.77569846     1.59900
O202        O  0.28907810  0.20753161  0.70735303    -0.80600
O203        O  0.26832194  0.10470291  0.78610614    -0.79200
C204        C  0.26566464  0.12544465  0.66990892     0.83300
C205        C  0.35788036  0.11137430  0.71944851     0.83000
O206        O  0.27902384  0.08194185  0.74835754    -0.78200
C207        C  0.32763379  0.16799120  0.80470810     0.83800
O208        O  0.27724092  0.10858722  0.68602685    -0.78300
C209        C  0.31345817  0.21594654  0.71190766     0.83900
C210        C  0.22407310  0.17577942  0.75884831     0.84200
O211        O  0.23188205  0.17869388  0.73410089    -0.80700
C212        C  0.24557813  0.02092314  0.38018774     0.80500
N213        N  0.24320052  0.02415147  0.40781948    -0.77800
C214        C  0.24016490  0.00178920  0.42419635     0.82900
N215        N  0.23886569  0.97657947  0.41264381    -0.77700
C216        C  0.24067431  0.97340929  0.38519498     0.83000
N217        N  0.24416656  0.99562983  0.36929224    -0.79500
C218        C  0.23809257  0.02824298  0.49592467     0.80500
N219        N  0.23720717  0.00441267  0.50978910    -0.77800
C220        C  0.23678628  0.98031031  0.49662104     0.82900
N221        N  0.23767462  0.98017226  0.46894858    -0.77700
C222        C  0.23868334  0.00377664  0.45441172     0.83000
N223        N  0.23916826  0.02810859  0.46800216    -0.79500
O224        O  0.21598545  0.11213656  0.08953861    -0.78200
C225        C  0.15964424  0.17462320  0.07749359     0.82800
O226        O  0.25748373  0.17868821  0.14801497    -0.79300
O227        O  0.15697426  0.20228819  0.15871174    -0.80800
O228        O  0.15467457  0.09988296  0.15860277    -0.80600
O229        O  0.21116976  0.08541721  0.12566753    -0.79200
Zn230      Zn  0.21097227  0.15056510  0.10360146     1.55700
O231        O  0.12974040  0.13774338  0.15548497    -0.80600
Cd232      Cd  0.19463864  0.11222256  0.15340152     1.59700
Cd233      Cd  0.21898068  0.17234269  0.16616560     1.59600
O234        O  0.21227449  0.10872714  0.19135841    -0.80600
O235        O  0.19604529  0.15032987  0.14023823    -1.91100
Cd236      Cd  0.15807574  0.16500522  0.13953501     1.59900
O237        O  0.22323932  0.15102419  0.20354714    -0.80600
O238        O  0.14627827  0.17278861  0.09976399    -0.79200
C239        C  0.26524716  0.17566838  0.12324195     0.83300
C240        C  0.21650568  0.08861120  0.10040963     0.83000
O241        O  0.18520860  0.16905072  0.07645040    -0.78200
C242        C  0.13176424  0.11221560  0.15980169     0.83800
O243        O  0.24892480  0.16707906  0.10476061    -0.78300
C244        C  0.22006517  0.12577132  0.20930132     0.83900
C245        C  0.17507140  0.21812942  0.16866300     0.84200
O246        O  0.19979489  0.21019436  0.17259450    -0.80700
C247        C  0.91132798  0.89402046  0.20507410     0.80500
N248        N  0.91009380  0.92166626  0.20321073    -0.77800
C249        C  0.93380900  0.93638613  0.20230163     0.82900
N250        N  0.95846250  0.92318176  0.20282922    -0.77700
C251        C  0.95960045  0.89560444  0.20439662     0.83000
N252        N  0.93596202  0.88130163  0.20539427    -0.79500
C253        C  0.91044155  0.00864205  0.19657478     0.80500
N254        N  0.90950633  0.98095820  0.19899029    -0.77800
C255        C  0.93347828  0.96641691  0.19985587     0.82900
N256        N  0.95789965  0.97971651  0.19800326    -0.77700
C257        C  0.95871043  0.00716135  0.19536790     0.83000
N258        N  0.93497674  0.02131558  0.19453403    -0.79500
O259        O  0.15082097  0.78889504  0.21631494    -0.78200
C260        C  0.21273717  0.80256558  0.27446834     0.82800
O261        O  0.22343317  0.73830945  0.17505019    -0.79300
O262        O  0.24501889  0.72004783  0.27399485    -0.80800
O263        O  0.14244230  0.71699257  0.27605221    -0.80600
O264        O  0.12549361  0.75172044  0.22110390    -0.79200
Zn265      Zn  0.19015840  0.77731335  0.22217938     1.55700
O266        O  0.18012527  0.72337893  0.30085226    -0.80600
Cd267      Cd  0.15434034  0.72469005  0.23638842     1.59700
Cd268      Cd  0.21565472  0.71714908  0.21120723     1.59600
O269        O  0.15323115  0.68767493  0.21661333    -0.80600
O270        O  0.19206763  0.74021342  0.23551735    -1.91100
Cd271      Cd  0.20753630  0.74005941  0.27320994     1.59900
O272        O  0.19590036  0.68027846  0.20232928    -0.80600
O273        O  0.21420856  0.77955598  0.28644588    -0.79200
C274        C  0.21995241  0.76334469  0.16892878     0.83300
C275        C  0.12757868  0.77707586  0.21613939     0.83000
O276        O  0.20564981  0.80424526  0.24947727    -0.78200
C277        C  0.15495515  0.71666279  0.29889090     0.83800
O278        O  0.20886997  0.77993103  0.18564916    -0.78300
C279        C  0.17116862  0.67232108  0.20554599     0.83900
C280        C  0.26060854  0.71036235  0.25547017     0.84200
O281        O  0.25303514  0.70886318  0.23052792    -0.80700
C282        C  0.40739376  0.39074535  0.68409339     0.80500
N283        N  0.40659692  0.41828709  0.68797830    -0.77800
C284        C  0.43062108  0.43256397  0.68975060     0.82900
N285        N  0.45498131  0.41903030  0.68816927    -0.77700
C286        C  0.45577423  0.39170099  0.68434866     0.83000
N287        N  0.43193427  0.37788276  0.68243675    -0.79500
C288        C  0.40995137  0.50496947  0.70163951     0.80500
N289        N  0.40803700  0.47745123  0.69800864    -0.77800
C290        C  0.43126984  0.46252019  0.69340364     0.82900
N291        N  0.45596846  0.47540696  0.69177987    -0.77700
C292        C  0.45782112  0.50274476  0.69504768     0.83000
N293        N  0.43483862  0.51718732  0.70025562    -0.79500
C294        C  0.75897456  0.36764427  0.38324097     0.80500
N295        N  0.76023125  0.39176219  0.36983224    -0.77800
C296        C  0.75957981  0.41565920  0.38354106     0.82900
N297        N  0.75830513  0.41518818  0.41125684    -0.77700
C298        C  0.75730374  0.39109077  0.42508504     0.83000
N299        N  0.75750665  0.36721935  0.41097386    -0.79500
C300        C  0.75872278  0.36971961  0.49810924     0.80500
N301        N  0.75954171  0.36831828  0.47030786    -0.77800
C302        C  0.75559126  0.39137015  0.45515301     0.82900
N303        N  0.75014048  0.41531656  0.46791480    -0.77700
C304        C  0.74832200  0.41648238  0.49549717     0.83000
N305        N  0.75299555  0.39374735  0.51037244    -0.79500
O306        O  0.64465871  0.67074034  0.60048813    -0.78200
C307        C  0.62882304  0.61332919  0.66148324     0.82800
O308        O  0.69796974  0.70871970  0.67358961    -0.79300
O309        O  0.71037776  0.60976481  0.69351561    -0.80800
O310        O  0.71518330  0.61024627  0.59094209    -0.80600
O311        O  0.68188020  0.66613706  0.57501651    -0.79200
Zn312      Zn  0.65659077  0.66412468  0.63930037     1.55700
O313        O  0.70849103  0.58440619  0.62785072    -0.80600
Cd314      Cd  0.70887929  0.64962189  0.60336123     1.59700
Cd315      Cd  0.71813090  0.67226873  0.66483774     1.59600
O316        O  0.74662767  0.66874346  0.60226881    -0.80600
O317        O  0.69352955  0.64965766  0.64096596    -1.91100
Cd318      Cd  0.69177777  0.61179748  0.65550379     1.59900
O319        O  0.75553018  0.68103139  0.64511926    -0.80600
O320        O  0.65135624  0.60013430  0.66168150    -0.79200
C321        C  0.67305019  0.71590485  0.66971568     0.83300
C322        C  0.65644014  0.67172817  0.57737116     0.83000
O323        O  0.62815442  0.63848781  0.65521308    -0.78200
C324        C  0.71503342  0.58717294  0.60277755     0.83800
O325        O  0.65599702  0.70030872  0.65782392    -0.78300
C326        C  0.76259825  0.67913473  0.62003574     0.83900
C327        C  0.72141397  0.62725705  0.70933659     0.84200
O328        O  0.72557652  0.65173623  0.70158090    -0.80700
C329        C  0.72127062  0.56296900  0.58617528    -0.11700
C330        C  0.73714678  0.54111159  0.59611924     0.03800
C331        C  0.74150167  0.51830866  0.57963424    -0.12200
C332        C  0.73020800  0.51685475  0.55332281     0.18600
C333        C  0.71436250  0.53864643  0.54338188    -0.09300
C334        C  0.71031773  0.56157574  0.55966441    -0.02200
H335        H  0.75370968  0.50151394  0.58740534     0.05200
C336        C  0.73398047  0.49175633  0.53731129     0.20600
H337        H  0.69776722  0.57810289  0.55185670     0.10300
C338        C  0.72066492  0.46805013  0.54597298    -0.15600
C339        C  0.72448820  0.44347335  0.53224259     0.03300
C340        C  0.74207923  0.44237352  0.50936549    -0.10900
C341        C  0.75481641  0.46633462  0.50027428    -0.00900
C342        C  0.75110910  0.49087858  0.51420610    -0.06100
H343        H  0.70722488  0.46869989  0.56358702     0.06300
H344        H  0.76847632  0.46577756  0.48283052     0.09700
Br345      Br  0.69649907  0.53735808  0.50846866    -0.05800
Br346      Br  0.75433503  0.54177948  0.63137276    -0.02800
Br347      Br  0.70409263  0.41256869  0.54506094     0.00100
Br348      Br  0.77100677  0.52222746  0.50188298    -0.04300
C349        C  0.48417355  0.51733807  0.69184803    -0.11700
C350        C  0.50122983  0.51338501  0.66891866     0.03800
C351        C  0.52466389  0.52952975  0.66545127    -0.12200
C352        C  0.53148632  0.54970255  0.68449987     0.18600
C353        C  0.51458986  0.55360549  0.70741255    -0.09300
C354        C  0.49110965  0.53758882  0.71086818    -0.02200
H355        H  0.53741823  0.52663418  0.64758659     0.05200
C356        C  0.55604252  0.56678327  0.67983335     0.20600
H357        H  0.47803956  0.54113662  0.72839364     0.10300
C358        C  0.55417697  0.58951799  0.66262238    -0.15600
C359        C  0.57726462  0.60557351  0.65697813     0.03300
C360        C  0.60305312  0.59864698  0.66845704    -0.10900
C361        C  0.60457654  0.57600368  0.68603353    -0.00900
C362        C  0.58138316  0.56029632  0.69188724    -0.06100
H363        H  0.53465335  0.59462763  0.65329193     0.06300
H364        H  0.62399611  0.57037271  0.69526650     0.09700
Br365      Br  0.52254851  0.58102403  0.73406928    -0.05800
Br366      Br  0.49226008  0.48807695  0.64048355    -0.02800
Br367      Br  0.57217305  0.63549118  0.63217478     0.00100
Br368      Br  0.58523750  0.52991120  0.71620559    -0.04300
C369        C  0.98592886  0.88059391  0.20311285    -0.11700
C370        C  0.00875652  0.88741885  0.21943163     0.03800
C371        C  0.03237707  0.87110312  0.21881547    -0.12200
C372        C  0.03354625  0.84778479  0.20235425     0.18600
C373        C  0.01094078  0.84114997  0.18585479    -0.09300
C374        C  0.98746463  0.85748630  0.18630133    -0.02200
H375        H  0.04953818  0.87602252  0.23203203     0.05200
C376        C  0.05740618  0.82927278  0.20443257     0.20600
H377        H  0.97010029  0.85187123  0.17364896     0.10300
C378        C  0.05473481  0.80515755  0.21946013    -0.15600
C379        C  0.07687796  0.78730666  0.22270340     0.03300
C380        C  0.10260411  0.79367027  0.21089525    -0.10900
C381        C  0.10496628  0.81771181  0.19537962    -0.00900
C382        C  0.08261544  0.83532259  0.19195211    -0.06100
H383        H  0.03528641  0.80038315  0.22907661     0.06300
H384        H  0.12436422  0.82293862  0.18592293     0.09700
Br385      Br  0.01117308  0.80968857  0.16272883    -0.05800
Br386      Br  0.00768875  0.91674409  0.24511473    -0.02800
Br387      Br  0.07062291  0.75573091  0.24503611     0.00100
Br388      Br  0.08717840  0.86711953  0.16968973    -0.04300
C389        C  0.98481545  0.02183344  0.19159558    -0.11700
C390        C  0.00815170  0.01678855  0.20788870     0.03800
C391        C  0.03213382  0.03186020  0.20362235    -0.12200
C392        C  0.03312393  0.05211882  0.18348021     0.18600
C393        C  0.00985717  0.05724550  0.16732023    -0.09300
C394        C  0.98595326  0.04226105  0.17155065    -0.02200
H395        H  0.05003953  0.02795787  0.21623807     0.05200
C396        C  0.05879694  0.06719170  0.17883454     0.20600
H397        H  0.96816454  0.04642804  0.15885070     0.10300
C398        C  0.07889269  0.05561141  0.16212019    -0.15600
C399        C  0.10276599  0.06991861  0.15565276     0.03300
C400        C  0.10688679  0.09634853  0.16626850    -0.10900
C401        C  0.08668671  0.10783438  0.18312696    -0.00900
C402        C  0.06280027  0.09343353  0.18951487    -0.06100
H403        H  0.07562065  0.03554203  0.15346580     0.06300
H404        H  0.08955250  0.12807607  0.19148877     0.09700
Br405      Br  0.01002429  0.08417959  0.13892193    -0.05800
Br406      Br  0.00782153  0.99122932  0.23745532    -0.02800
Br407      Br  0.12767651  0.05306927  0.13040455     0.00100
Br408      Br  0.03607816  0.11031523  0.21268955    -0.04300
C409        C  0.21874390  0.82770629  0.29049285    -0.11700
C410        C  0.20998396  0.85401439  0.28219079     0.03800
C411        C  0.21496316  0.87654283  0.29898732    -0.12200
C412        C  0.22826495  0.87363297  0.32419080     0.18600
C413        C  0.23695497  0.84769708  0.33258234    -0.09300
C414        C  0.23230034  0.82511792  0.31581984    -0.02200
H415        H  0.20807578  0.89651048  0.29250931     0.05200
C416        C  0.23292265  0.89799710  0.34133220     0.20600
H417        H  0.23922634  0.80535724  0.32283202     0.10300
C418        C  0.21556850  0.90326370  0.36355509    -0.15600
C419        C  0.21839716  0.92713203  0.37899041     0.03300
C420        C  0.23883069  0.94629760  0.37206817    -0.10900
C421        C  0.25657648  0.94050843  0.35021776    -0.00900
C422        C  0.25385674  0.91659918  0.33502420    -0.06100
H423        H  0.19932538  0.88904445  0.36847861     0.06300
H424        H  0.27251056  0.95485442  0.34470033     0.09700
Br425      Br  0.25543870  0.84230314  0.36674397    -0.05800
Br426      Br  0.18975683  0.86103996  0.24919757    -0.02800
Br427      Br  0.19231827  0.93340785  0.40762303     0.00100
Br428      Br  0.27912305  0.91012429  0.30574210    -0.04300
C429        C  0.24772434  0.04424569  0.36108223    -0.11700
C430        C  0.26588532  0.04319495  0.33859957     0.03800
C431        C  0.26294557  0.06152706  0.31691640    -0.12200
C432        C  0.24181935  0.08083794  0.31679798     0.18600
C433        C  0.22464532  0.08298064  0.33984004    -0.09300
C434        C  0.22794316  0.06501495  0.36195033    -0.02200
H435        H  0.27613553  0.05954761  0.29920922     0.05200
C436        C  0.23516382  0.09467435  0.29066300     0.20600
H437        H  0.21358201  0.06590372  0.37881109     0.10300
C438        C  0.21469920  0.08329222  0.27426709    -0.15600
C439        C  0.20923842  0.09341647  0.24815597     0.03300
C440        C  0.22465922  0.11554374  0.23762824    -0.10900
C441        C  0.24462681  0.12755936  0.25453772    -0.00900
C442        C  0.25005742  0.11715712  0.28078897    -0.06100
H443        H  0.20307963  0.06601333  0.28176096     0.06300
H444        H  0.25649788  0.14466626  0.24710194     0.09700
Br445      Br  0.19507274  0.10867411  0.34087292    -0.05800
Br446      Br  0.29417113  0.01612045  0.33556922    -0.02800
Br447      Br  0.17951472  0.07639928  0.22876496     0.00100
Br448      Br  0.27792648  0.13402092  0.30253569    -0.04300
C449        C  0.32151518  0.24462521  0.70527484    -0.11700
C450        C  0.30600961  0.26224708  0.68817583     0.03800
C451        C  0.31502979  0.28902568  0.68334691    -0.12200
C452        C  0.33915819  0.29888830  0.69540441     0.18600
C453        C  0.35437821  0.28160074  0.71258715    -0.09300
C454        C  0.34561864  0.25495950  0.71731589    -0.02200
H455        H  0.30336515  0.30211522  0.66984983     0.05200
C456        C  0.34973716  0.32640923  0.68864357     0.20600
H457        H  0.35789088  0.24231086  0.73069283     0.10300
C458        C  0.34884388  0.34712597  0.70838726    -0.15600
C459        C  0.36512826  0.37055714  0.70570760     0.03300
C460        C  0.38259160  0.37343013  0.68297114    -0.10900
C461        C  0.38120728  0.35397375  0.66200276    -0.00900
C462        C  0.36505029  0.33062238  0.66468965    -0.06100
H463        H  0.33716661  0.34406351  0.72692253     0.06300
H464        H  0.39463281  0.35576536  0.64449211     0.09700
Br465      Br  0.38797000  0.29320073  0.72944977    -0.05800
Br466      Br  0.27295877  0.25127135  0.66992792    -0.02800
Br467      Br  0.36585999  0.39585131  0.73544507     0.00100
Br468      Br  0.36750355  0.30334510  0.63681380    -0.04300
C469        C  0.25786337  0.11594062  0.64206471    -0.11700
C470        C  0.24873008  0.08903584  0.63725108     0.03800
C471        C  0.24451314  0.07988674  0.61049711    -0.12200
C472        C  0.24935282  0.09688768  0.58800042     0.18600
C473        C  0.25754654  0.12395859  0.59266999    -0.09300
C474        C  0.26156632  0.13331436  0.61949035    -0.02200
H475        H  0.23786068  0.05911953  0.60717741     0.05200
C476        C  0.24637193  0.08532486  0.56007727     0.20600
H477        H  0.26855064  0.15398845  0.62263402     0.10300
C478        C  0.22012433  0.07860845  0.55039507    -0.15600
C479        C  0.21683831  0.06256218  0.52695202     0.08900
C480        C  0.23998505  0.05325023  0.51247262    -0.10900
C481        C  0.26612351  0.06156160  0.52108491    -0.00900
C482        C  0.26947836  0.07719293  0.54480355    -0.06100
H483        H  0.20220279  0.08440170  0.56208483     0.06300
H484        H  0.28414406  0.05361999  0.51089994     0.09700
Br485      Br  0.26375064  0.14866507  0.56300674    -0.05800
Br486      Br  0.24084596  0.06385899  0.66624602    -0.02800
Br487      Br  0.18052276  0.05117637  0.51716787     0.00100
Br488      Br  0.30610694  0.08353285  0.55761307    -0.04300
C489        C  0.25348054  0.84317171  0.01739952    -0.11700
C490        C  0.23158230  0.82448844  0.01826093     0.03800
C491        C  0.22867545  0.80712502  0.04084697    -0.12200
C492        C  0.24709142  0.80842604  0.06289565     0.18600
C493        C  0.26997727  0.82572479  0.06111880    -0.09300
C494        C  0.27307333  0.84276388  0.03845838    -0.02200
H495        H  0.21081526  0.79413076  0.04221784     0.05200
C496        C  0.23961697  0.79565846  0.08926918     0.20600
H497        H  0.28975316  0.85728854  0.03828358     0.10300
C498        C  0.25396042  0.77285035  0.09902492    -0.15600
C499        C  0.24818090  0.76182523  0.12488447     0.03300
C500        C  0.22756693  0.77371482  0.14139481    -0.10900
C501        C  0.21337243  0.79656251  0.13132395    -0.00900
C502        C  0.21925268  0.80752652  0.10571509    -0.06100
H503        H  0.27004890  0.76395835  0.08670640     0.06300
H504        H  0.19749834  0.80610173  0.14343585     0.09700
Br505      Br  0.29547734  0.82948193  0.09074428    -0.05800
Br506      Br  0.20286225  0.82482322  0.99148294    -0.02800
Br507      Br  0.27043864  0.73186541  0.13693574     0.00100
Br508      Br  0.19967733  0.83963567  0.09463806    -0.04300
C509        C  0.22249818  0.06411353  0.08356957    -0.11700
C510        C  0.23367035  0.06534693  0.05684329     0.03800
C511        C  0.23862540  0.04130023  0.04237784    -0.12200
C512        C  0.23208691  0.01590117  0.05356919     0.18600
C513        C  0.22036492  0.01456109  0.07971398    -0.09300
C514        C  0.21591299  0.03840177  0.09449393    -0.02200
H515        H  0.24757946  0.04239315  0.02216462     0.05200
C516        C  0.23788223  0.99093085  0.03788514     0.20600
H517        H  0.20670246  0.03670732  0.11453749     0.10300
C518        C  0.25812208  0.97295224  0.04734660    -0.15600
C519        C  0.26327145  0.94844455  0.03386274     0.03300
C520        C  0.24810774  0.94173701  0.01026167    -0.10900
C521        C  0.22855470  0.96025688  0.00027601    -0.00900
C522        C  0.22323113  0.98460853  0.01396410    -0.06100
H523        H  0.26981227  0.97794506  0.06555308     0.06300
H524        H  0.21657076  0.95530231  0.98225301     0.09700
Br525      Br  0.20888307  0.98070668  0.09559360    -0.05800
Br526      Br  0.24283922  0.09856774  0.03832447    -0.02800
Br527      Br  0.29190460  0.92557664  0.04805717     0.00100
Br528      Br  0.19462013  0.00772157  0.00021464    -0.04300
C529        C  0.24467772  0.94035913  0.87052415    -0.11700
C530        C  0.26217354  0.96224459  0.87730323     0.03800
C531        C  0.26303432  0.98529999  0.86050020    -0.12200
C532        C  0.24652883  0.98720370  0.83712202     0.18600
C533        C  0.22829420  0.96598318  0.83092275    -0.09300
C534        C  0.22759430  0.94276583  0.84746663    -0.02200
H535        H  0.27721585  0.00157066  0.86527638     0.05200
C536        C  0.25035000  0.01058328  0.81852699     0.20600
H537        H  0.21391130  0.92629961  0.84202365     0.10300
C538        C  0.27285684  0.01049524  0.80074893    -0.15600
C539        C  0.27901876  0.03328996  0.78476301     0.03300
C540        C  0.26258717  0.05689148  0.78670605    -0.10900
C541        C  0.23958353  0.05660939  0.80399918    -0.00900
C542        C  0.23326080  0.03360780  0.81966074    -0.06100
H543        H  0.28615047  0.99284057  0.79989974     0.06300
H544        H  0.22668951  0.07450602  0.80562476     0.09700
Br545      Br  0.20476835  0.96745460  0.79955644    -0.05800
Br546      Br  0.28714799  0.96114480  0.90761871    -0.02800
Br547      Br  0.31157871  0.03171342  0.76275522     0.00100
Br548      Br  0.20171695  0.03477838  0.84298105    -0.04300
C549        C  0.41914525  0.20843538  0.04914467    -0.11700
C550        C  0.39773187  0.22773642  0.05029265     0.03800
C551        C  0.37600605  0.22425744  0.06860816    -0.12200
C552        C  0.37503262  0.20159788  0.08598942     0.18600
C553        C  0.39772835  0.18370624  0.08669861    -0.09300
C554        C  0.41962572  0.18727129  0.06839937    -0.02200
H555        H  0.35873728  0.23817752  0.06773984     0.05200
C556        C  0.34826533  0.19415846  0.09852408     0.20600
H557        H  0.43584862  0.17216663  0.06769316     0.10300
C558        C  0.33481656  0.17102961  0.08858663    -0.15600
C559        C  0.30826795  0.16446970  0.09696415     0.03300
C560        C  0.29415016  0.18144430  0.11551044    -0.10900
C561        C  0.30793232  0.20416680  0.12627905    -0.00900
C562        C  0.33469706  0.21071359  0.11777213    -0.06100
H563        H  0.34493659  0.15814077  0.07371043     0.06300
H564        H  0.29761611  0.21726521  0.14081447     0.09700
Br565      Br  0.39861724  0.15303389  0.11095414    -0.05800
Br566      Br  0.39611191  0.25799505  0.02551361    -0.02800
Br567      Br  0.29312523  0.13119221  0.08318044     0.00100
Br568      Br  0.35198986  0.24223845  0.13299954    -0.04300
C569        C  0.34225513  0.17566812  0.83039206    -0.11700
C570        C  0.33249173  0.16884081  0.85682848     0.03800
C571        C  0.34811974  0.17536665  0.87992600    -0.12200
C572        C  0.37344675  0.18856324  0.87751751     0.18600
C573        C  0.38297697  0.19595079  0.85150072    -0.09300
C574        C  0.36747848  0.18956025  0.82833315    -0.02200
H575        H  0.34076494  0.16947942  0.89998434     0.05200
C576        C  0.39032651  0.19289205  0.90225800     0.20600
H577        H  0.37544985  0.19539181  0.80850365     0.10300
C578        C  0.41354724  0.17652201  0.90650062    -0.15600
C579        C  0.42923489  0.17893042  0.93033504     0.03300
C580        C  0.42168532  0.19803325  0.95045100    -0.10900
C581        C  0.39845438  0.21443454  0.94609336    -0.00900
C582        C  0.38290124  0.21208664  0.92220242    -0.06100
H583        H  0.41913122  0.16143315  0.89144679     0.06300
H584        H  0.39246082  0.22925823  0.96126442     0.09700
Br585      Br  0.41698057  0.21499566  0.84672997    -0.05800
Br586      Br  0.29898969  0.14937170  0.86347910    -0.02800
Br587      Br  0.45926020  0.15408220  0.93517605     0.00100
Br588      Br  0.35205405  0.23587299  0.91743628    -0.04300
C589        C  0.69653592  0.21568882  0.11494723    -0.11700
C590        C  0.69122088  0.20026236  0.09130930     0.03800
C591        C  0.66440861  0.19818082  0.08131634    -0.12200
C592        C  0.64267756  0.21166274  0.09430064     0.18600
C593        C  0.64769158  0.22575704  0.11879022    -0.09300
C594        C  0.67446404  0.22743334  0.12909961    -0.02200
H595        H  0.66071262  0.18719847  0.06248414     0.05200
C596        C  0.61609907  0.21376875  0.07982531     0.20600
H597        H  0.67828327  0.23948514  0.14722874     0.10300
C598        C  0.59817666  0.19143943  0.07914679    -0.15600
C599        C  0.57530759  0.19143421  0.06169573     0.03300
C600        C  0.57021053  0.21400828  0.04466562    -0.10900
C601        C  0.58748257  0.23675873  0.04634713    -0.00900
C602        C  0.61026667  0.23678204  0.06367645    -0.06100
H603        H  0.60277235  0.17348228  0.09114220     0.06300
H604        H  0.58422796  0.25390850  0.03280885     0.09700
Br605      Br  0.61891767  0.24461253  0.13757780    -0.05800
Br606      Br  0.71998617  0.18222478  0.07165036    -0.02800
Br607      Br  0.55369074  0.15896723  0.05923133     0.00100
Br608      Br  0.63455754  0.26749466  0.06234972    -0.04300
C609        C  0.88575618  0.02606916  0.19592861    -0.11700
C610        C  0.88322826  0.04721332  0.21519006     0.03800
C611        C  0.86652906  0.06970129  0.20965524    -0.12200
C612        C  0.85217283  0.07172265  0.18493997     0.18600
C613        C  0.85279447  0.04956724  0.16666448    -0.09300
C614        C  0.86949380  0.02688505  0.17226873    -0.02200
H615        H  0.86623994  0.08655587  0.22390231     0.05200
C616        C  0.84046632  0.09857453  0.17714779     0.20600
H617        H  0.87149219  0.01099517  0.15708229     0.10300
C618        C  0.85398019  0.11403744  0.15722484    -0.15600
C619        C  0.84605018  0.14084092  0.15146236     0.03300
C620        C  0.82415100  0.15301299  0.16615499    -0.10900
C621        C  0.81008600  0.13702906  0.18548971    -0.00900
C622        C  0.81809940  0.11015444  0.19106152    -0.06100
H623        H  0.87125019  0.10530307  0.14638707     0.06300
H624        H  0.79302726  0.14559020  0.19675633     0.09700
Br625      Br  0.83242416  0.05028588  0.13317304    -0.05800
Br626      Br  0.90443595  0.04747502  0.24823479    -0.02800
Br627      Br  0.86572491  0.15880564  0.12256970     0.00100
Br628      Br  0.79779146  0.08984459  0.21763762    -0.04300
C629        C  0.75890397  0.34254216  0.36693747    -0.11700
C630        C  0.73410592  0.32974653  0.35977407     0.03800
C631        C  0.73339803  0.31168565  0.33764749    -0.12200
C632        C  0.75727265  0.30598385  0.32266418     0.18600
C633        C  0.78244387  0.31715063  0.33133552    -0.09300
C634        C  0.78304305  0.33534970  0.35323863    -0.02200
H635        H  0.71390152  0.30346479  0.33101591     0.05200
C636        C  0.75486657  0.29351041  0.29523873     0.20600
H637        H  0.80211974  0.34543340  0.35832538     0.10300
C638        C  0.74380051  0.30940665  0.27415559    -0.15600
C639        C  0.74530514  0.30096197  0.24697023     0.03300
C640        C  0.75823061  0.27608909  0.24037076    -0.10900
C641        C  0.76730575  0.25914852  0.26175547    -0.00900
C642        C  0.76570590  0.26768988  0.28904654    -0.06100
H643        H  0.73492631  0.32911389  0.27878188     0.06300
H644        H  0.77699957  0.23983041  0.25717633     0.09700
Br645      Br  0.81597599  0.31111528  0.31174765    -0.05800
Br646      Br  0.70030124  0.33877411  0.37760280    -0.02800
Br647      Br  0.72923672  0.32435030  0.21986496     0.00100
Br648      Br  0.77933189  0.24401480  0.31710860    -0.04300
C649        C  0.06397093  0.21033443  0.93381610    -0.11700
C650        C  0.05292997  0.19608578  0.95640931     0.03800
C651        C  0.06859817  0.19287587  0.98025220    -0.12200
C652        C  0.09507449  0.20388836  0.98230091     0.18600
C653        C  0.10556333  0.21908110  0.96032587    -0.09300
C654        C  0.09018579  0.22200178  0.93637869    -0.02200
H655        H  0.06038150  0.18103079  0.99705338     0.05200
C656        C  0.11219510  0.19771257  0.00661411     0.20600
H657        H  0.09890225  0.23341938  0.91954292     0.10300
C658        C  0.13517283  0.18075899  0.00366151    -0.15600
C659        C  0.15139175  0.17351670  0.02616293     0.03300
C660        C  0.14458264  0.18320900  0.05248407    -0.10900
C661        C  0.12162534  0.20040070  0.05525398    -0.00900
C662        C  0.10561106  0.20776174  0.03266507    -0.06100
H663        H  0.14025463  0.17271129  0.98368636     0.06300
H664        H  0.11604692  0.20823281  0.07518103     0.09700
Br665      Br  0.14067360  0.23656506  0.96228749    -0.05800
Br666      Br  0.01769933  0.17866490  0.95554320    -0.02800
Br667      Br  0.18119057  0.14882196  0.01953699     0.00100
Br668      Br  0.07540420  0.23215524  0.03824482    -0.04300
C669        C  0.19631696  0.18506855  0.76796345    -0.11700
C670        C  0.17437419  0.19124235  0.74988592     0.03800
C671        C  0.14834312  0.19786555  0.76036873    -0.12200
C672        C  0.14363239  0.19845607  0.78858817     0.18600
C673        C  0.16536788  0.19271063  0.80653087    -0.09300
C674        C  0.19125714  0.18631446  0.79626952    -0.02200
H675        H  0.13159504  0.20213941  0.74645598     0.05200
C676        C  0.11595186  0.20398943  0.79969120     0.20600
H677        H  0.20743680  0.18184739  0.81076200     0.10300
C678        C  0.09857168  0.18193963  0.80529657    -0.15600
C679        C  0.07593921  0.18505811  0.82262513     0.03300
C680        C  0.07042935  0.21053308  0.83449576    -0.10900
C681        C  0.08653863  0.23302030  0.82716972    -0.00900
C682        C  0.10908883  0.22993683  0.80973331    -0.06100
H683        H  0.10383024  0.16185369  0.79789582     0.06300
H684        H  0.08267503  0.25263676  0.83645526     0.09700
Br685      Br  0.16035877  0.19242820  0.84543787    -0.05800
Br686      Br  0.17769448  0.18977839  0.71086257    -0.02800
Br687      Br  0.05514535  0.15337285  0.83225399     0.00100
Br688      Br  0.13161407  0.26103423  0.80232395    -0.04300
C689        C  0.92196616  0.22709905  0.92837956    -0.11700
C690        C  0.93215128  0.24050166  0.95183694     0.03800
C691        C  0.91602412  0.24188778  0.97546019    -0.12200
C692        C  0.88986308  0.23013343  0.97623180     0.18600
C693        C  0.87964094  0.21689411  0.95299988    -0.09300
C694        C  0.89559263  0.21551374  0.92937946    -0.02200
H695        H  0.92385637  0.25234401  0.99332446     0.05200
C696        C  0.87339271  0.23199991  0.00139507     0.20600
H697        H  0.88734355  0.20502144  0.91172289     0.10300
C698        C  0.85643226  0.25468084  0.00545273    -0.15600
C699        C  0.84079803  0.25716323  0.02927076     0.03300
C700        C  0.84223693  0.23674321  0.04948895    -0.10900
C701        C  0.85922867  0.21408628  0.04535255    -0.00900
C702        C  0.87455465  0.21147742  0.02140308    -0.06100
H703        H  0.85557658  0.27061736  0.99012897     0.06300
H704        H  0.86055631  0.19832502  0.06084469     0.09700
Br705      Br  0.84400541  0.20038177  0.95274762    -0.05800
Br706      Br  0.96695431  0.25874518  0.95266186    -0.02800
Br707      Br  0.81945612  0.28967192  0.03407928     0.00100
Br708      Br  0.89686428  0.17966493  0.01683007    -0.04300
C709        C  0.77226598  0.56332173  0.28884857    -0.11700
C710        C  0.75489318  0.56278325  0.31200358     0.03800
C711        C  0.75336988  0.53928527  0.32822321    -0.12200
C712        C  0.76899420  0.51615995  0.32196908     0.18600
C713        C  0.78617783  0.51661888  0.29890077    -0.09300
C714        C  0.78756497  0.53993125  0.28251617    -0.02200
H715        H  0.73972005  0.53894006  0.34567527     0.05200
C716        C  0.76594558  0.49113239  0.33863930     0.20600
H717        H  0.80136905  0.54002727  0.26518461     0.10300
C718        C  0.75091831  0.46938296  0.32791245    -0.15600
C719        C  0.74809328  0.44498382  0.34237066     0.03300
C720        C  0.76064723  0.44185742  0.36827866    -0.10900
C721        C  0.77511616  0.46404418  0.37932118    -0.00900
C722        C  0.77788131  0.48849097  0.36470341    -0.06100
H723        H  0.74128312  0.47143932  0.30804931     0.06300
H724        H  0.78491903  0.46215562  0.39910826     0.09700
Br725      Br  0.80897482  0.48618717  0.28963404    -0.05800
Br726      Br  0.73172922  0.59284997  0.32186647    -0.02800
Br727      Br  0.72549780  0.41749798  0.32593445     0.00100
Br728      Br  0.79902370  0.51733896  0.38052048    -0.04300
C729        C  0.82316556  0.74801284  0.20061597    -0.11700
C730        C  0.80608612  0.77006373  0.20820954     0.03800
C731        C  0.81595676  0.79680030  0.20648273    -0.12200
C732        C  0.84258542  0.80211286  0.19718186     0.18600
C733        C  0.85927597  0.78029441  0.18875426    -0.09300
C734        C  0.84951071  0.75361666  0.19044436    -0.02200
H735        H  0.80321912  0.81343992  0.21346568     0.05200
C736        C  0.85409622  0.82983886  0.19966591     0.20600
H737        H  0.86299811  0.73707583  0.18470884     0.10300
C738        C  0.86297270  0.83859288  0.22543412    -0.15600
C739        C  0.87945851  0.86171627  0.22801730     0.03300
C740        C  0.88673519  0.87679869  0.20466831    -0.10900
C741        C  0.87583036  0.86941296  0.17923643    -0.00900
C742        C  0.85968453  0.84600529  0.17657459    -0.06100
H743        H  0.85877217  0.82628988  0.24331736     0.06300
H744        H  0.88182747  0.88049467  0.16106473     0.09700
Br745      Br  0.89645262  0.78570812  0.17702376    -0.05800
Br746      Br  0.77037104  0.76516509  0.22399122    -0.02800
Br747      Br  0.89398213  0.87035080  0.26336887     0.00100
Br748      Br  0.84785952  0.83547794  0.14078644    -0.04300
C749        C  0.10249303  0.36954766  0.21185704    -0.11700
C750        C  0.10838023  0.34928483  0.23140452     0.03800
C751        C  0.12610554  0.32782959  0.22488019    -0.12200
C752        C  0.13854562  0.32639161  0.19910168     0.18600
C753        C  0.13512919  0.34834820  0.18079289    -0.09300
C754        C  0.11718004  0.36969756  0.18724899    -0.02200
H755        H  0.12878374  0.31133173  0.23935012     0.05200
C756        C  0.15038829  0.30001298  0.19004314     0.20600
H757        H  0.11308105  0.38527111  0.17209630     0.10300
C758        C  0.13694098  0.28593031  0.16912043    -0.15600
C759        C  0.14508192  0.25979853  0.16141417     0.03300
C760        C  0.16691837  0.24661372  0.17530808    -0.10900
C761        C  0.18102712  0.26114986  0.19570877    -0.00900
C762        C  0.17292546  0.28759116  0.20311514    -0.06100
H763        H  0.11961173  0.29528016  0.15884532     0.06300
H764        H  0.19815217  0.25178768  0.20626660     0.09700
Br765      Br  0.15326071  0.34917037  0.14607142    -0.05800
Br766      Br  0.09206149  0.34971127  0.26698682    -0.02800
Br767      Br  0.12599851  0.24431829  0.13075187     0.00100
Br768      Br  0.19352371  0.30622972  0.23067914    -0.04300
C769        C  0.88069021  0.30053143  0.17852252    -0.11700
C770        C  0.88048353  0.31751231  0.20178686     0.03800
C771        C  0.90448164  0.33105759  0.20963790    -0.12200
C772        C  0.92874566  0.32796706  0.19465426     0.18600
C773        C  0.92916757  0.31056546  0.17192461    -0.09300
C774        C  0.90532190  0.29691187  0.16412993    -0.02200
H775        H  0.90416368  0.34430030  0.22732036     0.05200
C776        C  0.95316433  0.34401383  0.20201568     0.20600
H777        H  0.90585629  0.28399335  0.14620965     0.10300
C778        C  0.97304489  0.33279051  0.21933662    -0.15600
C779        C  0.99750846  0.34670691  0.22476582     0.03300
C780        C  0.00232904  0.37244103  0.21265752    -0.10900
C781        C  0.98167640  0.38391781  0.19613025    -0.00900
C782        C  0.95740691  0.36990155  0.19067381    -0.06100
H783        H  0.96968370  0.31288643  0.22830280     0.06300
H784        H  0.98477915  0.40350499  0.18641921     0.09700
Br785      Br  0.96164975  0.30567436  0.15038996    -0.05800
Br786      Br  0.84855932  0.32206850  0.22428074    -0.02800
Br787      Br  0.02274843  0.32957754  0.24940971     0.00100
Br788      Br  0.93112039  0.38626281  0.16650615    -0.04300
C789        C  0.09838004  0.51626040  0.18717442    -0.11700
C790        C  0.11562760  0.52261919  0.20935801     0.03800
C791        C  0.13213097  0.54594897  0.20826499    -0.12200
C792        C  0.13191742  0.56285875  0.18513662     0.18600
C793        C  0.11731717  0.55456835  0.16179850    -0.09300
C794        C  0.10037872  0.53165145  0.16308534    -0.02200
H795        H  0.14347531  0.55203932  0.22626190     0.05200
C796        C  0.14248463  0.59101016  0.18757224     0.20600
H797        H  0.08736020  0.52686564  0.14581414     0.10300
C798        C  0.17076295  0.59610166  0.18815157    -0.15600
C799        C  0.18090752  0.62248510  0.19273064     0.03300
C800        C  0.16242431  0.64439565  0.19714664    -0.10900
C801        C  0.13408393  0.63900550  0.19573758    -0.00900
C802        C  0.12412507  0.61279711  0.19121635    -0.06100
H803        H  0.18500086  0.57937966  0.18552863     0.06300
H804        H  0.11933037  0.65517593  0.19891260     0.09700
Br805      Br  0.11809519  0.57536080  0.12863745    -0.05800
Br806      Br  0.11452613  0.50238152  0.24285304    -0.02800
Br807      Br  0.22007266  0.62634944  0.19406726     0.00100
Br808      Br  0.08506645  0.60756519  0.19203541    -0.04300
C809        C  0.99893128  0.51011951  0.19189330    -0.11700
C810        C  0.98041308  0.51005816  0.21399123     0.03800
C811        C  0.95637982  0.52562485  0.21259133    -0.12200
C812        C  0.95024073  0.54126497  0.18937013     0.18600
C813        C  0.96825963  0.54060402  0.16694150    -0.09300
C814        C  0.99247972  0.52531146  0.16843460    -0.02200
H815        H  0.94278644  0.52624765  0.23012080     0.05200
C816        C  0.92617140  0.55972475  0.19007100     0.20600
H817        H  0.00647755  0.52541329  0.15122086     0.10300
C818        C  0.93042454  0.58787263  0.19174983    -0.15600
C819        C  0.90852501  0.60587649  0.19602573     0.03300
C820        C  0.88150644  0.59564379  0.19921418    -0.10900
C821        C  0.87733686  0.56741745  0.19591963    -0.00900
C822        C  0.89927333  0.54961167  0.19138144    -0.06100
H823        H  0.95110582  0.59584929  0.19043337     0.06300
H824        H  0.85694995  0.55884513  0.19762044     0.09700
Br825      Br  0.96041028  0.55998405  0.13383191    -0.05800
Br826      Br  0.98810297  0.49125140  0.24750237    -0.02800
Br827      Br  0.91761068  0.64388351  0.19723230     0.00100
Br828      Br  0.89157686  0.51157982  0.18710198    -0.04300
C829        C  0.23849361  0.95451601  0.51232259    -0.11700
C830        C  0.22805538  0.95192587  0.53919863     0.03800
C831        C  0.23279394  0.92804581  0.55405150    -0.12200
C832        C  0.24777372  0.90653233  0.54275506     0.18600
C833        C  0.25753376  0.90867615  0.51585469    -0.09300
C834        C  0.25273006  0.93241953  0.50084483    -0.02200
H835        H  0.22494682  0.92630449  0.57470852     0.05200
C836        C  0.25352026  0.88223919  0.55955645     0.20600
H837        H  0.26114057  0.93394287  0.48040226     0.10300
C838        C  0.23876859  0.85825874  0.55488539    -0.15600
C839        C  0.24406291  0.83476188  0.57019298     0.03300
C840        C  0.26451544  0.83514382  0.59071711    -0.10900
C841        C  0.27881754  0.85945158  0.59563518    -0.00900
C842        C  0.27358353  0.88280379  0.58018346    -0.06100
H843        H  0.22303505  0.85784901  0.53918734     0.06300
H844        H  0.29477809  0.86011235  0.61107819     0.09700
Br845      Br  0.27888517  0.88030466  0.49940570    -0.05800
Br846      Br  0.20650823  0.97956104  0.55680407    -0.02800
Br847      Br  0.22179258  0.80338798  0.56279416     0.00100
Br848      Br  0.29517762  0.91466967  0.58709471    -0.04300
C849        C  0.32309731  0.64991377  0.67800406    -0.11700
C850        C  0.30991728  0.63480256  0.69889398     0.03800
C851        C  0.31926435  0.60850963  0.70555647    -0.12200
C852        C  0.34168682  0.59692796  0.69187803     0.18600
C853        C  0.35490110  0.61199035  0.67132142    -0.09300
C854        C  0.34556363  0.63798340  0.66450886    -0.02200
H855        H  0.30935836  0.59726487  0.72181277     0.05200
C856        C  0.35265249  0.56993109  0.69997423     0.20600
H857        H  0.35615980  0.64896530  0.64850405     0.10300
C858        C  0.34833125  0.54741542  0.68286786    -0.15600
C859        C  0.36466244  0.52396439  0.68522867     0.03300
C860        C  0.38577342  0.52297214  0.70492276    -0.10900
C861        C  0.38791202  0.54436895  0.72385196    -0.00900
C862        C  0.37163183  0.56770592  0.72149076    -0.06100
H863        H  0.33377072  0.54896132  0.66622609     0.06300
H864        H  0.40402155  0.54398048  0.73910102     0.09700
Br865      Br  0.38670818  0.59833836  0.65269023    -0.05800
Br866      Br  0.28043876  0.64930499  0.72039297    -0.02800
Br867      Br  0.35994420  0.49589578  0.65850204     0.00100
Br868      Br  0.37866161  0.59748866  0.74578121    -0.04300
C869        C  0.26327840  0.77733512  0.73947538    -0.11700
C870        C  0.24886605  0.76120957  0.75880350     0.03800
C871        C  0.24427660  0.77115802  0.78531336    -0.12200
C872        C  0.25387344  0.79685583  0.79312509     0.18600
C873        C  0.26818194  0.81284537  0.77411783    -0.09300
C874        C  0.27272647  0.80314019  0.74777766    -0.02200
H875        H  0.23298082  0.75890355  0.79983635     0.05200
C876        C  0.24788070  0.80786592  0.82055876     0.20600
H877        H  0.28392870  0.81605245  0.73377643     0.10300
C878        C  0.26853104  0.80773649  0.84058055    -0.15600
C879        C  0.26649711  0.82448019  0.86366496     0.03300
C880        C  0.24355337  0.84164698  0.86674966    -0.10900
C881        C  0.22187219  0.83978183  0.84796596    -0.00900
C882        C  0.22385139  0.82304271  0.82503992    -0.06100
H883        H  0.28717920  0.79623876  0.83717995     0.06300
H884        H  0.20423711  0.85306369  0.84998402     0.09700
Br885      Br  0.28152222  0.84850263  0.78309032    -0.05800
Br886      Br  0.23426483  0.72584870  0.75075953    -0.02800
Br887      Br  0.29717321  0.82609608  0.88814025     0.00100
Br888      Br  0.19476125  0.82419233  0.79866480    -0.04300
C889        C  0.56296075  0.20854712  0.94588603    -0.11700
C890        C  0.58760869  0.19385196  0.94209709     0.03800
C891        C  0.60184049  0.19579714  0.91740664    -0.12200
C892        C  0.59211295  0.21226912  0.89614886     0.18600
C893        C  0.56706731  0.22622367  0.89944135    -0.09300
C894        C  0.55260702  0.22415601  0.92412410    -0.02200
H895        H  0.62088512  0.18467195  0.91488292     0.05200
C896        C  0.60901618  0.21533355  0.87120183     0.20600
H897        H  0.53378285  0.23561330  0.92668253     0.10300
C898        C  0.60119836  0.20219648  0.84705084    -0.15600
C899        C  0.61696570  0.20461270  0.82322675     0.03300
C900        C  0.64101029  0.22082226  0.82323985    -0.10900
C901        C  0.64907272  0.23326896  0.84781750    -0.00900
C902        C  0.63340767  0.23059344  0.87157693    -0.06100
H903        H  0.58281143  0.18981692  0.84681388     0.06300
H904        H  0.66732419  0.24581391  0.84847250     0.09700
Br905      Br  0.55276956  0.24953595  0.87138591    -0.05800
Br906      Br  0.60252233  0.17002466  0.96948236    -0.02800
Br907      Br  0.60509785  0.18406564  0.79204374     0.00100
Br908      Br  0.64566290  0.24894870  0.90390540    -0.04300
C909        C  0.60499363  0.29947203  0.70454775    -0.11700
C910        C  0.60556065  0.32573224  0.69242300     0.03800
C911        C  0.58108142  0.33999450  0.68802899    -0.12200
C912        C  0.55575164  0.32907222  0.69578156     0.18600
C913        C  0.55491383  0.30286411  0.70732818    -0.09300
C914        C  0.57928143  0.28831517  0.71146130    -0.02200
H915        H  0.58182227  0.36005454  0.67887175     0.05200
C916        C  0.53059835  0.34567865  0.69219485     0.20600
H917        H  0.57804790  0.26844368  0.72094285     0.10300
C918        C  0.51067811  0.33761787  0.67321832    -0.15600
C919        C  0.48655610  0.35271120  0.66962105     0.03300
C920        C  0.48212736  0.37660261  0.68511678    -0.10900
C921        C  0.50255764  0.38503762  0.70346869    -0.00900
C922        C  0.52648155  0.36973489  0.70724096    -0.06100
H923        H  0.51391246  0.31939484  0.66117415     0.06300
H924        H  0.49944797  0.40308431  0.71580317     0.09700
Br925      Br  0.52116849  0.28672236  0.71931028    -0.05800
Br926      Br  0.63847908  0.34405939  0.68128490    -0.02800
Br927      Br  0.46112571  0.34005173  0.64249238     0.00100
Br928      Br  0.55214746  0.38160956  0.73444117    -0.04300
C929        C  0.73269441  0.27813102  0.63925038    -0.11700
C930        C  0.71473251  0.29400690  0.62319825     0.03800
C931        C  0.72304827  0.30360946  0.59771183    -0.12200
C932        C  0.74884954  0.29703868  0.58695419     0.18600
C933        C  0.76665816  0.28044702  0.60251258    -0.09300
C934        C  0.75845549  0.27104696  0.62841983    -0.02200
H935        H  0.70914057  0.31641613  0.58611561     0.05200
C936        C  0.75672670  0.30955619  0.56038382     0.20600
H937        H  0.77238832  0.25853831  0.64029086     0.10300
C938        C  0.77814767  0.32859469  0.55981112    -0.15600
C939        C  0.78114888  0.34642393  0.53769270     0.03300
C940        C  0.76239720  0.34561627  0.51577085    -0.10900
C941        C  0.74283885  0.32477579  0.51495352    -0.00900
C942        C  0.73994617  0.30675884  0.53699841    -0.06100
H943        H  0.79133498  0.33100035  0.57747806     0.06300
H944        H  0.72830921  0.32387577  0.49820165     0.09700
Br945      Br  0.80194047  0.26966445  0.58901541    -0.05800
Br946      Br  0.67769498  0.30162501  0.63393973    -0.02800
Br947      Br  0.81006022  0.37286751  0.53902622     0.00100
Br948      Br  0.71148816  0.27988595  0.53510301    -0.04300
C949        C  0.79219796  0.21304789  0.76479707    -0.11700
C950        C  0.79851902  0.20296920  0.79107707     0.03800
C951        C  0.82583574  0.20206430  0.79993773    -0.12200
C952        C  0.84728210  0.21066333  0.78290575     0.18600
C953        C  0.84127463  0.21814442  0.75580784    -0.09300
C954        C  0.81391180  0.21937206  0.74697679    -0.02200
H955        H  0.83030473  0.19547366  0.82062353     0.05200
C956        C  0.87507091  0.21388526  0.79490884     0.20600
H957        H  0.80956679  0.22663943  0.72650398     0.10300
C958        C  0.89028001  0.19074075  0.80232213    -0.15600
C959        C  0.91345064  0.19301006  0.81919324     0.03300
C960        C  0.92122967  0.21860364  0.82945539    -0.10900
C961        C  0.90724752  0.24188731  0.82041456    -0.00900
C962        C  0.88455537  0.23974881  0.80300079    -0.06100
H963        H  0.88327030  0.17077213  0.79617724     0.06300
H964        H  0.91282800  0.26164687  0.82842704     0.09700
Br965      Br  0.86975629  0.22752993  0.73055401    -0.05800
Br966      Br  0.77080550  0.18960256  0.81546107    -0.02800
Br967      Br  0.93217021  0.16043820  0.83011395     0.00100
Br968      Br  0.86545184  0.27254354  0.79330506    -0.04300
C969        C  0.72705716  0.45855251  0.01304984    -0.11700
C970        C  0.71764050  0.45564689  0.04030524     0.03800
C971        C  0.72433431  0.43234441  0.05532604    -0.12200
C972        C  0.73993068  0.41140325  0.04380359     0.18600
C973        C  0.74809863  0.41346345  0.01632409    -0.09300
C974        C  0.74173759  0.43687877  0.00125047    -0.02200
H975        H  0.71725423  0.43048105  0.07619866     0.05200
C976        C  0.74683498  0.38735272  0.06071168     0.20600
H977        H  0.74911559  0.43842202  0.98046850     0.10300
C978        C  0.73410746  0.36247455  0.05512178    -0.15600
C979        C  0.73979377  0.33932722  0.07079352     0.03300
C980        C  0.75868962  0.34083695  0.09277814    -0.10900
C981        C  0.77090532  0.36606487  0.09867496    -0.00900
C982        C  0.76519917  0.38914164  0.08284395    -0.06100
H983        H  0.71951677  0.36110508  0.03845876     0.06300
H984        H  0.78560911  0.36773021  0.11519744     0.09700
Br985      Br  0.76901333  0.38535620  0.99887800    -0.05800
Br986      Br  0.69456334  0.48176005  0.05834389    -0.02800
Br987      Br  0.72000052  0.30684098  0.06141605     0.00100
Br988      Br  0.78390703  0.42237421  0.09144468    -0.04300
C989        C  0.75496185  0.62204125  0.13852880    -0.11700
C990        C  0.73993749  0.63896192  0.12025359     0.03800
C991        C  0.73231788  0.62916504  0.09436018    -0.12200
C992        C  0.73937749  0.60280182  0.08610957     0.18600
C993        C  0.75444927  0.58611053  0.10398481    -0.09300
C994        C  0.76203152  0.59567694  0.12973164    -0.02200
H995        H  0.72051714  0.64202375  0.08074910     0.05200
C996        C  0.72994689  0.59185328  0.05954593     0.20600
H997        H  0.77367790  0.58223209  0.14288566     0.10300
C998        C  0.74750094  0.59285245  0.03685224    -0.15600
C999        C  0.74307201  0.57588349  0.01423348     0.03300
C1000       C  0.72100238  0.55736132  0.01443147    -0.10900
C1001       C  0.70191044  0.55861923  0.03588858    -0.00900
C1002       C  0.70615648  0.57576872  0.05824657    -0.06100
H1003       H  0.76584205  0.60522261  0.03766004     0.06300
H1004       H  0.68478944  0.54461796  0.03630712     0.09700
Br1005     Br  0.76485991  0.54972092  0.09416197    -0.05800
Br1006     Br  0.72820278  0.67521852  0.12906567    -0.02800
Br1007     Br  0.76989933  0.57600533  0.98562837     0.00100
Br1008     Br  0.68074401  0.57420554  0.08809591    -0.04300
C1009       C  0.74015152  0.55563365  0.86698904    -0.11700
C1010       C  0.71724935  0.57171432  0.86013343     0.03800
C1011       C  0.71773677  0.58764587  0.83636243    -0.12200
C1012       C  0.74097286  0.58792472  0.81943454     0.18600
C1013       C  0.76499086  0.57458753  0.82823195    -0.09300
C1014       C  0.76431066  0.55826006  0.85164533    -0.02200
H1015       H  0.69925238  0.59816834  0.83000456     0.05200
C1016       C  0.73838542  0.59851217  0.79116907     0.20600
H1017       H  0.78209838  0.54602359  0.85676264     0.10300
C1018       C  0.73495052  0.62644678  0.78649234    -0.15600
C1019       C  0.73027563  0.63657359  0.76004907     0.03300
C1020       C  0.72892224  0.61845626  0.73756167    -0.10900
C1021       C  0.73272947  0.59049410  0.74251805    -0.00900
C1022       C  0.73718946  0.58048869  0.76886893    -0.06100
H1023       H  0.73532739  0.64037292  0.80358784     0.06300
H1024       H  0.73159905  0.57610133  0.72585032     0.09700
Br1025     Br  0.79841356  0.57635173  0.80765249    -0.05800
Br1026     Br  0.68376440  0.56964856  0.88052972    -0.02800
Br1027     Br  0.72385138  0.67499882  0.75684467     0.00100
Br1028     Br  0.73952262  0.54171142  0.77347790    -0.04300
C1029       C  0.71910777  0.33843332  0.78605371    -0.11700
C1030       C  0.70238968  0.36170194  0.78236066     0.03800
C1031       C  0.70667900  0.38491158  0.79838796    -0.12200
C1032       C  0.72712171  0.38541359  0.81852568     0.18600
C1033       C  0.74376605  0.36231454  0.82232945    -0.09300
C1034       C  0.73971572  0.33913463  0.80617523    -0.02200
H1035       H  0.69343997  0.40247316  0.79566316     0.05200
C1036       C  0.72997839  0.40984662  0.83602643     0.20600
H1037       H  0.75260859  0.32144712  0.80953304     0.10300
C1038       C  0.71886341  0.40970099  0.86242128    -0.15600
C1039       C  0.71982431  0.43292601  0.87904935     0.03300
C1040       C  0.73250309  0.45702750  0.86932834    -0.10900
C1041       C  0.74398613  0.45669595  0.84288429    -0.00900
C1042       C  0.74263706  0.43359831  0.82631034    -0.06100
H1043       H  0.70877312  0.39151074  0.86989915     0.06300
H1044       H  0.75394605  0.47466989  0.83474023     0.09700
Br1045     Br  0.77212379  0.36159665  0.84948588    -0.05800
Br1046     Br  0.67153570  0.36218135  0.75794316    -0.02800
Br1047     Br  0.70168425  0.43031953  0.91374363     0.00100
Br1048     Br  0.75826068  0.43546784  0.79042185    -0.04300
C1049       C  0.28890100  0.70231327  0.26313823    -0.11700
C1050       C  0.29453673  0.68839295  0.28773999     0.03800
C1051       C  0.32163263  0.68583983  0.29694130    -0.12200
C1052       C  0.34346400  0.69709318  0.28209829     0.18600
C1053       C  0.33807136  0.70914313  0.25652530    -0.09300
C1054       C  0.31096950  0.71153427  0.24718000    -0.02200
H1055       H  0.32556961  0.67614163  0.31646861     0.05200
C1056       C  0.37083818  0.69881406  0.29532292     0.20600
H1057       H  0.30704694  0.72209143  0.22810900     0.10300
C1058       C  0.38607931  0.67502857  0.30031706    -0.15600
C1059       C  0.40941680  0.67559337  0.31718218     0.03300
C1060       C  0.41798366  0.70027239  0.32903727    -0.10900
C1061       C  0.40348491  0.72417643  0.32291165    -0.00900
C1062       C  0.38000383  0.72360266  0.30649973    -0.06100
H1063       H  0.37891931  0.65576090  0.29235494     0.06300
H1064       H  0.40916309  0.74305762  0.33278507     0.09700
Br1065     Br  0.36694988  0.72382198  0.23442221    -0.05800
Br1066     Br  0.26601370  0.67257112  0.30958421    -0.02800
Br1067     Br  0.42688641  0.64179756  0.32623711     0.00100
Br1068     Br  0.35904151  0.75655024  0.30323705    -0.04300
C1069       C  0.42322257  0.70801817  0.42801474    -0.11700
C1070       C  0.43624787  0.71622949  0.45259724     0.03800
C1071       C  0.42091033  0.71852724  0.47670659    -0.12200
C1072       C  0.39268161  0.71311867  0.47703167     0.18600
C1073       C  0.37961029  0.70540184  0.45267724    -0.09300
C1074       C  0.39479874  0.70278212  0.42865778    -0.02200
H1075       H  0.43100072  0.72500010  0.49531778     0.05200
C1076       C  0.37694769  0.71651554  0.50268374     0.20600
H1077       H  0.38410647  0.69645422  0.41035151     0.10300
C1078       C  0.35800359  0.73789687  0.50472618    -0.15600
C1079       C  0.34254714  0.74170449  0.52847366     0.03300
C1080       C  0.34579765  0.72375117  0.55080564    -0.10900
C1081       C  0.36517560  0.70264137  0.54889738    -0.00900
C1082       C  0.38062886  0.69888787  0.52509061    -0.06100
H1083       H  0.35547491  0.75192391  0.48779565     0.06300
H1084       H  0.36822636  0.68890239  0.56598083     0.09700
Br1085     Br  0.34104062  0.69771209  0.45125111    -0.05800
Br1086     Br  0.47429715  0.72615549  0.45509210    -0.02800
Br1087     Br  0.31917642  0.77316560  0.52993795     0.00100
Br1088     Br  0.40604750  0.66908854  0.52385957    -0.04300
C1089       C  0.56333549  0.69695466  0.42968051    -0.11700
C1090       C  0.58761283  0.71176103  0.43474336     0.03800
C1091       C  0.60179381  0.70813476  0.45930874    -0.12200
C1092       C  0.59218431  0.69004724  0.47926284     0.18600
C1093       C  0.56719320  0.67632130  0.47488419    -0.09300
C1094       C  0.55298406  0.67986440  0.45024140    -0.02200
H1095       H  0.62057399  0.71939200  0.46283636     0.05200
C1096       C  0.60875090  0.68568917  0.50428286     0.20600
H1097       H  0.53428469  0.66848427  0.44676773     0.10300
C1098       C  0.59892682  0.69497947  0.52946927    -0.15600
C1099       C  0.61417875  0.69135594  0.55346862     0.03300
C1100       C  0.64006709  0.67816971  0.55248935    -0.10900
C1101       C  0.64998880  0.66943289  0.52699480    -0.00900
C1102       C  0.63461130  0.67298187  0.50314022    -0.06100
H1103       H  0.57923766  0.70521929  0.53042721     0.06300
H1104       H  0.66956567  0.65905717  0.52559901     0.09700
Br1105     Br  0.55240956  0.65150537  0.50130738    -0.05800
Br1106     Br  0.60168261  0.73825375  0.40954605    -0.02800
Br1107     Br  0.59849895  0.70585520  0.58637207     0.00100
Br1108     Br  0.64929466  0.65893744  0.46965361    -0.04300
C1109       C  0.69992575  0.68704410  0.26539217    -0.11700
C1110       C  0.69519579  0.69771478  0.29176695     0.03800
C1111       C  0.66834475  0.70095644  0.30131487    -0.12200
C1112       C  0.64579692  0.69371765  0.28513529     0.18600
C1113       C  0.65031231  0.68447917  0.25834130    -0.09300
C1114       C  0.67720487  0.68139291  0.24858651    -0.02200
H1115       H  0.66503000  0.70830951  0.32192129     0.05200
C1116       C  0.61821638  0.69335590  0.29786438     0.20600
H1117       H  0.68033769  0.67324309  0.22826879     0.10300
C1118       C  0.60315148  0.71757990  0.30047104    -0.15600
C1119       C  0.57949795  0.71855333  0.31681837     0.03300
C1120       C  0.57063123  0.69504833  0.33074504    -0.10900
C1121       C  0.58494963  0.67057792  0.32690780    -0.00900
C1122       C  0.60853368  0.66958725  0.31068667    -0.06100
H1123       H  0.61061251  0.73605390  0.29097456     0.06300
H1124       H  0.57888379  0.65257532  0.33816536     0.09700
Br1125     Br  0.62033282  0.67463195  0.23503979    -0.05800
Br1126     Br  0.72445091  0.70845858  0.31573690    -0.02800
Br1127     Br  0.56168621  0.75294006  0.32199076     0.00100
Br1128     Br  0.62855855  0.63599195  0.30898377    -0.04300
C1129       C  0.06574243  0.70151811  0.44882771    -0.11700
C1130       C  0.08563614  0.72149621  0.44303189     0.03800
C1131       C  0.09915373  0.72132288  0.41787840    -0.12200
C1132       C  0.09335681  0.70137647  0.39828419     0.18600
C1133       C  0.07381058  0.68114206  0.40418812    -0.09300
C1134       C  0.05989063  0.68157642  0.42918188    -0.02200
H1135       H  0.11415630  0.73699135  0.41345771     0.05200
C1136       C  0.10820832  0.70226265  0.37200555     0.20600
H1137       H  0.04485276  0.66593026  0.43354832     0.10300
C1138       C  0.13633166  0.69635154  0.37166464    -0.15600
C1139       C  0.15185763  0.69974005  0.34788843     0.03300
C1140       C  0.13920841  0.70965273  0.32384545    -0.10900
C1141       C  0.11074291  0.71454776  0.32408056    -0.00900
C1142       C  0.09529199  0.71103832  0.34785072    -0.06100
H1143       H  0.14633829  0.68936045  0.39018116     0.06300
H1144       H  0.10052532  0.72219757  0.30594184     0.09700
Br1145     Br  0.06637455  0.65199072  0.37927668    -0.05800
Br1146     Br  0.09406196  0.75033136  0.46804308    -0.02800
Br1147     Br  0.18990141  0.68966521  0.34966834     0.00100
Br1148     Br  0.05701543  0.72019911  0.34673723    -0.04300
C1149       C  0.19637591  0.71586694  0.61385611    -0.11700
C1150       C  0.17601549  0.70438115  0.63114862     0.03800
C1151       C  0.14899388  0.70097091  0.62152877    -0.12200
C1152       C  0.14162472  0.70895576  0.59501418     0.18600
C1153       C  0.16164620  0.72045716  0.57794065    -0.09300
C1154       C  0.18848715  0.72373534  0.58728370    -0.02200
H1155       H  0.13372101  0.69181961  0.63469277     0.05200
C1156       C  0.11373045  0.70374050  0.58408893     0.20600
H1157       H  0.20321489  0.73277941  0.57346648     0.10300
C1158       C  0.09489918  0.72531621  0.58188008    -0.15600
C1159       C  0.07215974  0.72340428  0.56434641     0.03300
C1160       C  0.06845010  0.69988229  0.54839124    -0.10900
C1161       C  0.08582020  0.67748070  0.55262447    -0.00900
C1162       C  0.10807175  0.67912561  0.57061305    -0.06100
H1163       H  0.09900376  0.74434558  0.59220730     0.06300
H1164       H  0.08316162  0.65925510  0.54051181     0.09700
Br1165     Br  0.15336070  0.73160517  0.54122924    -0.05800
Br1166     Br  0.18322588  0.69244340  0.66781754    -0.02800
Br1167     Br  0.04862265  0.75443218  0.56037769     0.00100
Br1168     Br  0.13200328  0.64829847  0.57388553    -0.04300
C1169       C  0.79036763  0.68824774  0.61106472    -0.11700
C1170       C  0.79526167  0.69722731  0.58400639     0.03800
C1171       C  0.82206905  0.70186181  0.57502477    -0.12200
C1172       C  0.84455420  0.69783615  0.59235358     0.18600
C1173       C  0.83983189  0.69072862  0.61981106    -0.09300
C1174       C  0.81290426  0.68605306  0.62899636    -0.02200
H1175       H  0.82548663  0.70773538  0.55394928     0.05200
C1176       C  0.87240177  0.69855941  0.58011427     0.20600
H1177       H  0.80973097  0.67955042  0.64990630     0.10300
C1178       C  0.88358411  0.72352909  0.57171209    -0.15600
C1179       C  0.90640267  0.72433319  0.55428478     0.03300
C1180       C  0.91839349  0.69994527  0.54507651    -0.10900
C1181       C  0.90824825  0.67508065  0.55475835    -0.00900
C1182       C  0.88541404  0.67422571  0.57207515    -0.06100
H1183       H  0.87352067  0.74236501  0.57735564     0.06300
H1184       H  0.91680609  0.65618728  0.54717224     0.09700
Br1185     Br  0.86964430  0.68653436  0.64503285    -0.05800
Br1186     Br  0.76644967  0.70386860  0.55802504    -0.02800
Br1187     Br  0.91894831  0.75898776  0.54129615     0.00100
Br1188     Br  0.87053048  0.63927359  0.58125317    -0.04300
C1189       C  0.92451206  0.69863211  0.44538796    -0.11700
C1190       C  0.89705514  0.70748302  0.44159696     0.03800
C1191       C  0.88434612  0.70448578  0.41618104    -0.12200
C1192       C  0.89812761  0.69272954  0.39408164     0.18600
C1193       C  0.92577047  0.68501511  0.39727873    -0.09300
C1194       C  0.93868922  0.68801970  0.42270087    -0.02200
H1195       H  0.86319773  0.71101225  0.41370943     0.05200
C1196       C  0.88266276  0.68760270  0.36848476     0.20600
H1197       H  0.95976159  0.68122045  0.42487453     0.10300
C1198       C  0.88918263  0.70191659  0.34451939    -0.15600
C1199       C  0.87414304  0.69791300  0.32039472     0.03300
C1200       C  0.85199389  0.67935727  0.32010795    -0.10900
C1201       C  0.84536572  0.66543917  0.34426150    -0.00900
C1202       C  0.86048114  0.66926476  0.36816391    -0.06100
H1203       H  0.90586651  0.71650588  0.34468604     0.06300
H1204       H  0.82864541  0.65089198  0.34442658     0.09700
Br1205     Br  0.94623904  0.66895205  0.36799115    -0.05800
Br1206     Br  0.87542636  0.72461852  0.46951947    -0.02800
Br1207     Br  0.88374346  0.71952684  0.28914930     0.00100
Br1208     Br  0.85057843  0.64805502  0.39958368    -0.04300
C1209       C  0.50191960  0.01445970  0.69450259    -0.11700
C1210       C  0.47981083  0.00480144  0.71049989     0.03800
C1211       C  0.45556511  0.02000919  0.71208630    -0.12200
C1212       C  0.45276269  0.04451748  0.69771416     0.18600
C1213       C  0.47412355  0.05340858  0.68070558    -0.09300
C1214       C  0.49850571  0.03852892  0.67934985    -0.02200
H1215       H  0.43910358  0.01313642  0.72527920     0.05200
C1216       C  0.42850977  0.06177863  0.70256305     0.20600
H1217       H  0.51506736  0.04604123  0.66665066     0.10300
C1218       C  0.42965757  0.08131522  0.72331263    -0.15600
C1219       C  0.40711779  0.09801899  0.72888603     0.03300
C1220       C  0.38285184  0.09537591  0.71331310    -0.10900
C1221       C  0.38182069  0.07564269  0.69255660    -0.00900
C1222       C  0.40442018  0.05895028  0.68709322    -0.06100
H1223       H  0.44813939  0.08329505  0.73551773     0.06300
H1224       H  0.36329771  0.07314335  0.68054010     0.09700
Br1225     Br  0.47100225  0.08612494  0.65954745    -0.05800
Br1226     Br  0.48201502  0.97250596  0.73255038    -0.02800
Br1227     Br  0.41011598  0.12226327  0.75945687     0.00100
Br1228     Br  0.40159899  0.03248523  0.65851677    -0.04300
C1229       C  0.60116422  0.02369076  0.69703030    -0.11700
C1230       C  0.61835527  0.02850880  0.67441215     0.03800
C1231       C  0.63486834  0.05197830  0.67362091    -0.12200
C1232       C  0.63451696  0.07072097  0.69526110     0.18600
C1233       C  0.61858300  0.06496510  0.71850093    -0.09300
C1234       C  0.60212795  0.04170316  0.71921240    -0.02200
H1235       H  0.64692234  0.05628452  0.65556952     0.05200
C1236       C  0.64785104  0.09772196  0.69244429     0.20600
H1237       H  0.58862944  0.03857451  0.73649237     0.10300
C1238       C  0.63243722  0.11936747  0.68172627    -0.15600
C1239       C  0.64167307  0.14626863  0.68388115     0.03300
C1240       C  0.66694306  0.15191542  0.69682546    -0.10900
C1241       C  0.68331666  0.13000235  0.70558562    -0.00900
C1242       C  0.67384130  0.10311078  0.70373070    -0.06100
H1243       H  0.61244390  0.11542715  0.67285170     0.06300
H1244       H  0.70275932  0.13389670  0.71559658     0.09700
Br1245     Br  0.61668693  0.08970952  0.74872615    -0.05800
Br1246     Br  0.61761257  0.00521803  0.64308319    -0.02800
Br1247     Br  0.61877187  0.17447337  0.66906975     0.00100
Br1248     Br  0.69600327  0.07456642  0.71877826    -0.04300
C1249       C  0.60458901  0.87225383  0.70117396    -0.11700
C1250       C  0.60966086  0.85468949  0.72336070     0.03800
C1251       C  0.62591984  0.83153343  0.71977378    -0.12200
C1252       C  0.63689245  0.82528237  0.69410027     0.18600
C1253       C  0.63332804  0.84374951  0.67234846    -0.09300
C1254       C  0.61754060  0.86726609  0.67612957    -0.02200
H1255       H  0.62829194  0.81730037  0.73651651     0.05200
C1256       C  0.64703682  0.79737503  0.68924542     0.20600
H1257       H  0.61303232  0.88011990  0.65870897     0.10300
C1258       C  0.62771276  0.77641754  0.68755042    -0.15600
C1259       C  0.63567361  0.74969106  0.68212055     0.03300
C1260       C  0.66378238  0.74344417  0.67813844    -0.10900
C1261       C  0.68321475  0.76449116  0.68073109    -0.00900
C1262       C  0.67502502  0.79128414  0.68618265    -0.06100
H1263       H  0.60610529  0.78099550  0.69026895     0.06300
H1264       H  0.70484936  0.76028122  0.67783386     0.09700
Br1265     Br  0.64610936  0.83571902  0.63621851    -0.05800
Br1266     Br  0.59226370  0.85993545  0.75807016    -0.02800
Br1267     Br  0.60677766  0.72305838  0.68131014     0.00100
Br1268     Br  0.70254628  0.81893214  0.68922794    -0.04300
C1269       C  0.50525140  0.87589071  0.69544379    -0.11700
C1270       C  0.48289559  0.88584096  0.67980918     0.03800
C1271       C  0.45955604  0.86967439  0.67618145    -0.12200
C1272       C  0.45780876  0.84373050  0.68787357     0.18600
C1273       C  0.47954881  0.83401916  0.70399010    -0.09300
C1274       C  0.50299479  0.84999516  0.70760609    -0.02200
H1275       H  0.44276555  0.87719705  0.66369060     0.05200
C1276       C  0.43336326  0.82688505  0.68242377     0.20600
H1277       H  0.51968767  0.84196853  0.71988337     0.10300
C1278       C  0.43417847  0.80763708  0.66135505    -0.15600
C1279       C  0.41092660  0.79231049  0.65470720     0.03300
C1280       C  0.38634494  0.79607826  0.66948090    -0.10900
C1281       C  0.38570940  0.81534555  0.69064517    -0.00900
C1282       C  0.40896342  0.83064460  0.69718691    -0.06100
H1283       H  0.45285048  0.80499560  0.64961587     0.06300
H1284       H  0.36697113  0.81858877  0.70212214     0.09700
Br1285     Br  0.47794599  0.79905862  0.72137145    -0.05800
Br1286     Br  0.48316056  0.92022718  0.66109897    -0.02800
Br1287     Br  0.41332225  0.76850871  0.62373027     0.00100
Br1288     Br  0.40659864  0.85656390  0.72631127    -0.04300
loop_ 
_geom_bond_atom_site_label_1 
_geom_bond_atom_site_label_2 
_geom_bond_distance 
_geom_bond_site_symmetry_2 
_ccdc_geom_bond_type 
C1            N2   1.365       .  A
C1            N6   1.356       .  A
C1         C1249   1.469       .  S
N2            C3   1.365       .  A
C3            N4   1.362       .  A
C3            C9   1.478       .  S
N4            C5   1.354       .  A
C5            N6   1.352       .  A
C5         C1269   1.487       .  S
C7            N8   1.369   1_545  A
C7           N12   1.357       .  A
C7         C1229   1.479       .  S
N8            C9   1.369       .  A
C9           N10   1.359       .  A
N10          C11   1.351   1_565  A
C11          N12   1.352       .  A
C11        C1209   1.479       .  S
C13          N14   1.363       .  A
C13          N18   1.356       .  A
C13        C1180   1.473       .  S
N14          C15   1.364       .  A
C15          N16   1.363       .  A
C15          C21   1.477   1_655  S
N16          C17   1.358       .  A
C17          N18   1.354       .  A
C17        C1189   1.493       .  S
C19          N20   1.365       .  A
C19          N24   1.358       .  A
C19        C1160   1.477       .  S
N20          C21   1.366       .  A
C21          N22   1.360       .  A
N22          C23   1.354       .  A
C23          N24   1.354       .  A
C23        C1129   1.475       .  S
C25          N26   1.355       .  A
C25          N30   1.368       .  A
C25        C1120   1.475       .  S
N26          C27   1.352       .  A
C27          N28   1.355       .  A
C27        C1089   1.480       .  S
N28          C29   1.362       .  A
C29          N30   1.368       .  A
C29          C33   1.482       .  S
C31          N32   1.367       .  A
C31          N36   1.355       .  A
C31        C1060   1.476       .  S
N32          C33   1.368       .  A
C33          N34   1.362       .  A
N34          C35   1.354       .  A
C35          N36   1.354       .  A
C35        C1069   1.494       .  S
C37          N38   1.362       .  A
C37          N42   1.354       .  A
C37        C1009   1.472       .  S
N38          C39   1.365       .  A
C39          N40   1.365       .  A
C39          C47   1.480       .  S
N40          C41   1.360       .  A
C41          N42   1.354       .  A
C41        C1040   1.496       .  S
C43          N44   1.354   1_556  A
C43          N48   1.364       .  A
C43        C1000   1.480   1_556  S
N44          C45   1.352   1_554  A
C45          N46   1.360       .  A
C45         C969   1.490   1_556  S
N46          C47   1.363       .  A
C47          N48   1.366       .  A
O49          C65   1.272       .  A
O49         Zn55   2.023       .  S
C50        C1029   1.487       .  S
C50          O66   1.276       .  A
C50          O63   1.275       .  A
O51          C64   1.278       .  A
O51         Cd58   2.095       .  S
O52          C70   1.277       .  A
O52         Cd61   2.081       .  S
O53          C67   1.274       .  A
O53         Cd57   2.073       .  S
O54          C65   1.275       .  A
O54         Cd57   2.076       .  S
Zn55         O66   2.038       .  S
Zn55         O68   2.027       .  S
Zn55         O60   1.946       .  S
O56          C67   1.278       .  A
O56         Cd61   2.083       .  S
Cd57         O59   2.073       .  S
Cd57         O60   2.002       .  S
Cd58         O62   2.103       .  S
Cd58         O71   2.091       .  S
Cd58         O60   2.013       .  S
O59          C69   1.276       .  A
O60         Cd61   2.003       .  S
Cd61         O63   2.078       .  S
O62          C69   1.280       .  A
C64         C929   1.485       .  S
C64          O68   1.277       .  A
C65         C909   1.494       .  S
C67         C900   1.490       .  S
C69        C1240   1.486       .  S
C70         C949   1.486       .  S
C70          O71   1.278       .  A
O72          C88   1.271       .  A
O72         Zn78   2.009       .  S
C73        C1080   1.481       .  S
C73          O89   1.276       .  A
C73          O86   1.274       .  A
O74          C87   1.278       .  A
O74         Cd81   2.099       .  S
O75          C93   1.277       .  A
O75         Cd84   2.068       .  S
O76          C90   1.274       .  A
O76         Cd80   2.063       .  S
O77          C88   1.275       .  A
O77         Cd80   2.070       .  S
Zn78         O89   2.032       .  S
Zn78         O91   2.020       .  S
Zn78         O83   1.937       .  S
O79          C90   1.275       .  A
O79         Cd84   2.076       .  S
Cd80         O82   2.059       .  S
Cd80         O83   1.992       .  S
Cd81         O85   2.096       .  S
Cd81         O94   2.100       .  S
Cd81         O83   2.008       .  S
O82          C92   1.276       .  A
O83         Cd84   1.993       .  S
Cd84         O86   2.068       .  S
O85          C92   1.277       .  A
C87        C1149   1.501       .  S
C87          O91   1.278       .  A
C88         C840   1.480       .  S
C90        C1280   1.479       .  S
C92         C869   1.496       .  S
C93         C849   1.493       .  S
C93          O94   1.279       .  A
C95          N96   1.357       .  A
C95         N100   1.364       .  A
C95         C789   1.475       .  S
N96          C97   1.353       .  A
C97          N98   1.356       .  A
C97         C809   1.478   1_455  S
N98          C99   1.363       .  A
C99         N100   1.364       .  A
C99         C103   1.477       .  S
C101        N102   1.366       .  A
C101        N106   1.360       .  A
C101        C749   1.478       .  S
N102        C103   1.364       .  A
C103        N104   1.357       .  A
N104        C105   1.356       .  A
C105        N106   1.356       .  A
C105        C780   1.487       .  S
O107        C123   1.275       .  A
O107       Zn113   2.020       .  S
C108        C709   1.486       .  S
C108        O124   1.279       .  A
C108        O121   1.272       .  A
O109        C122   1.276       .  A
O109       Cd116   2.084       .  S
O110        C128   1.275       .  A
O110       Cd119   2.066       .  S
O111        C125   1.275       .  A
O111       Cd115   2.079       .  S
O112        C123   1.276       .  A
O112       Cd115   2.084       .  S
Zn113       O124   2.048       .  S
Zn113       O126   2.037       .  S
Zn113       O118   1.939       .  S
O114        C125   1.276       .  A
O114       Cd119   2.070       .  S
Cd115       O117   2.072       .  S
Cd115       O118   2.000       .  S
Cd116       O120   2.084       .  S
Cd116       O129   2.094       .  S
Cd116       O118   2.000       .  S
O117        C127   1.277       .  A
O118       Cd119   1.988       .  S
Cd119       O121   2.059       .  S
O120        C127   1.277       .  A
C122        C989   1.499       .  S
C122        O126   1.280       .  A
C123        C820   1.497       .  S
C125       C1200   1.483       .  S
C127        C729   1.485       .  S
C128       C1109   1.486       .  S
C128        O129   1.278       .  A
C130        N131   1.364       .  A
C130        N135   1.355       .  A
C130        C960   1.474       .  S
N131        C132   1.366       .  A
C132        N133   1.361       .  A
C132        C138   1.477   1_655  S
N133        C134   1.356       .  A
C134        N135   1.354       .  A
C134        C689   1.484       .  S
C136        N137   1.362       .  A
C136        N141   1.356       .  A
C136        C680   1.472       .  S
N137        C138   1.364       .  A
C138        N139   1.363       .  A
N139        C140   1.358       .  A
C140        N141   1.356       .  A
C140        C649   1.488       .  S
O142        C158   1.270       .  A
O142       Zn148   2.000       .  S
C143        C700   1.471       .  S
C143        O159   1.274       .  A
C143        O156   1.273       .  A
O144        C157   1.277       .  A
O144       Cd151   2.087       .  S
O145        C163   1.274       .  A
O145       Cd154   2.066       .  S
O146        C160   1.275       .  A
O146       Cd150   2.073       .  S
O147        C158   1.277       .  A
O147       Cd150   2.090       .  S
Zn148       O159   2.021       .  S
Zn148       O161   2.017       .  S
Zn148       O153   1.934       .  S
O149        C160   1.276       .  A
O149       Cd154   2.068       .  S
Cd150       O152   2.069       .  S
Cd150       O153   1.997       .  S
Cd151       O155   2.096       .  S
Cd151       O164   2.100       .  S
Cd151       O153   2.000       .  S
O152        C162   1.276       .  A
O153       Cd154   1.987       .  S
Cd154       O156   2.060       .  S
O155        C162   1.279       .  A
C157        C589   1.476       .  S
C157        O161   1.276       .  A
C158        C980   1.487       .  S
C160        C769   1.478       .  S
C162        C640   1.485       .  S
C163        C620   1.494       .  S
C163        O164   1.280       .  A
C165        N166   1.356       .  A
C165        N170   1.367       .  A
C165        C549   1.480       .  S
N166        C167   1.352   1_554  A
C167        N168   1.355       .  A
C167        C580   1.478       .  S
N168        C169   1.361   1_556  A
C169        N170   1.369       .  A
C169        C175   1.481   1_554  S
C171        N172   1.354   1_554  A
C171        N176   1.365       .  A
C171        C600   1.474       .  S
N172        C173   1.352       .  A
C173        N174   1.358       .  A
C173        C889   1.482       .  S
N174        C175   1.365       .  A
C175        N176   1.366   1_556  A
C177        N178   1.365       .  A
C177        N182   1.356       .  A
C177        C880   1.473       .  S
N178        C179   1.365       .  A
C179        N180   1.363       .  A
C179        C185   1.476       .  S
N180        C181   1.355       .  A
C181        N182   1.352       .  A
C181        C529   1.482       .  S
C183        N184   1.367       .  A
C183        N188   1.356   1_556  A
C183        C489   1.478   1_556  S
N184        C185   1.367       .  A
C185        N186   1.359       .  A
N186        C187   1.353       .  A
C187        N188   1.351   1_556  A
C187        C520   1.475   1_556  S
O189        C205   1.273       .  A
O189       Zn195   2.010       .  S
C190        C540   1.479       .  S
C190        O206   1.274       .  A
C190        O203   1.274       .  A
O191        C204   1.281       .  A
O191       Cd198   2.112       .  S
O192        C210   1.275       .  A
O192       Cd201   2.057       .  S
O193        C207   1.275       .  A
O193       Cd197   2.073       .  S
O194        C205   1.276       .  A
O194       Cd197   2.078       .  S
Zn195       O206   2.024       .  S
Zn195       O208   2.017       .  S
Zn195       O200   1.943       .  S
O196        C207   1.274       .  A
O196       Cd201   2.081       .  S
Cd197       O199   2.072       .  S
Cd197       O200   1.999       .  S
Cd198       O202   2.101       .  S
Cd198       O211   2.104       .  S
Cd198       O200   2.013       .  S
O199        C209   1.278       .  A
O200       Cd201   1.996       .  S
Cd201       O203   2.066       .  S
O202        C209   1.279       .  A
C204        C469   1.492       .  S
C204        O208   1.275       .  A
C205       C1220   1.480       .  S
C207        C569   1.495       .  S
C209        C449   1.499       .  S
C210        C669   1.497       .  S
C210        O211   1.279       .  A
C212        N213   1.368       .  A
C212        N217   1.356   1_545  A
C212        C429   1.483       .  S
N213        C214   1.368       .  A
C214        N215   1.365   1_545  A
C214        C222   1.485       .  S
N215        C216   1.357       .  A
C216        N217   1.352       .  A
C216        C420   1.483       .  S
C218        N219   1.354       .  A
C218        N223   1.369       .  A
C218        C480   1.477       .  S
N219        C220   1.350   1_545  A
C220        N221   1.356       .  A
C220        C829   1.484       .  S
N221        C222   1.361   1_565  A
C222        N223   1.370       .  A
O224        C240   1.273       .  A
O224       Zn230   2.026       .  S
C225        C660   1.488       .  S
C225        O241   1.277       .  A
C225        O238   1.274       .  A
O226        C239   1.280       .  A
O226       Cd233   2.101       .  S
O227        C245   1.275       .  A
O227       Cd236   2.062       .  S
O228        C242   1.272       .  A
O228       Cd232   2.057       .  S
O229        C240   1.274       .  A
O229       Cd232   2.058       .  S
Zn230       O241   2.040       .  S
Zn230       O243   2.022       .  S
Zn230       O235   1.937       .  S
O231        C242   1.276       .  A
O231       Cd236   2.078       .  S
Cd232       O234   2.055       .  S
Cd232       O235   1.981       .  S
Cd233       O237   2.118       .  S
Cd233       O246   2.106       .  S
Cd233       O235   2.010       .  S
O234        C244   1.273       .  A
O235       Cd236   1.986       .  S
Cd236       O238   2.066       .  S
O237        C244   1.282       .  A
C239        C560   1.487       .  S
C239        O243   1.277       .  A
C240        C509   1.490       .  S
C242        C400   1.477       .  S
C244        C440   1.492       .  S
C245        C760   1.492       .  S
C245        O246   1.281       .  A
C247        N248   1.363       .  A
C247        N252   1.353       .  A
C247        C740   1.469       .  S
N248        C249   1.365       .  A
C249        N250   1.366       .  A
C249        C255   1.481       .  S
N250        C251   1.359       .  A
C251        N252   1.352       .  A
C251        C369   1.481       .  S
C253        N254   1.367   1_545  A
C253        N258   1.353       .  A
C253        C609   1.477       .  S
N254        C255   1.370       .  A
C255        N256   1.362       .  A
N256        C257   1.356   1_565  A
C257        N258   1.350       .  A
C257        C389   1.475       .  S
O259        C275   1.274       .  A
O259       Zn265   2.020       .  S
C260        C409   1.494       .  S
C260        O276   1.274       .  A
C260        O273   1.275       .  A
O261        C274   1.277       .  A
O261       Cd268   2.088       .  S
O262        C280   1.277       .  A
O262       Cd271   2.075       .  S
O263        C277   1.274       .  A
O263       Cd267   2.063       .  S
O264        C275   1.274       .  A
O264       Cd267   2.072       .  S
Zn265       O276   2.029       .  S
Zn265       O278   2.013       .  S
Zn265       O270   1.938       .  S
O266        C277   1.275       .  A
O266       Cd271   2.072       .  S
Cd267       O269   2.064       .  S
Cd267       O270   1.993       .  S
Cd268       O272   2.099       .  S
Cd268       O281   2.092       .  S
Cd268       O270   2.008       .  S
O269        C279   1.276       .  A
O270       Cd271   1.994       .  S
Cd271       O273   2.074       .  S
O272        C279   1.278       .  A
C274        C500   1.489       .  S
C274        O278   1.277       .  A
C275        C380   1.487       .  S
C277       C1140   1.484       .  S
C279        C800   1.496       .  S
C280       C1049   1.482       .  S
C280        O281   1.278       .  A
C282        N283   1.368       .  A
C282        N287   1.355       .  A
C282        C460   1.481       .  S
N283        C284   1.369       .  A
C284        N285   1.363       .  A
C284        C290   1.484       .  S
N285        C286   1.357       .  A
C286        N287   1.350       .  A
C286        C920   1.483       .  S
C288        N289   1.368       .  A
C288        N293   1.356       .  A
C288        C860   1.482       .  S
N289        C290   1.368       .  A
C290        N291   1.364       .  A
N291        C292   1.357       .  A
C292        N293   1.351       .  A
C292        C349   1.481       .  S
C294        N295   1.356       .  A
C294        N299   1.361       .  A
C294        C629   1.471       .  S
N295        C296   1.354       .  A
C296        N297   1.359       .  A
C296        C720   1.489       .  S
N297        C298   1.365       .  A
C298        N299   1.363       .  A
C298        C302   1.475       .  S
C300        N301   1.364       .  A
C300        N305   1.355       .  A
C300        C940   1.477       .  S
N301        C302   1.367       .  A
C302        N303   1.360       .  A
N303        C304   1.355       .  A
C304        N305   1.352       .  A
C304        C340   1.475       .  S
O306        C322   1.271       .  A
O306       Zn312   2.014       .  S
C307        C360   1.489       .  S
C307        O323   1.274       .  A
C307        O320   1.275       .  A
O308        C321   1.279       .  A
O308       Cd315   2.088       .  S
O309        C327   1.277       .  A
O309       Cd318   2.073       .  S
O310        C324   1.273       .  A
O310       Cd314   2.053       .  S
O311        C322   1.275       .  A
O311       Cd314   2.076       .  S
Zn312       O323   2.030       .  S
Zn312       O325   1.998       .  S
Zn312       O317   1.937       .  S
O313        C324   1.276       .  A
O313       Cd318   2.078       .  S
Cd314       O316   2.068       .  S
Cd314       O317   1.989       .  S
Cd315       O319   2.109       .  S
Cd315       O328   2.093       .  S
Cd315       O317   2.011       .  S
O316        C326   1.275       .  A
O317       Cd318   1.994       .  S
Cd318       O320   2.075       .  S
O319        C326   1.280       .  A
C321       C1260   1.486       .  S
C321        O325   1.273       .  A
C322       C1100   1.490       .  S
C324        C329   1.474       .  S
C326       C1169   1.493       .  S
C327       C1020   1.493       .  S
C327        O328   1.278       .  A
C329        C330   1.409       .  A
C329        C334   1.405       .  A
C330        C331   1.399       .  A
C330       Br346   1.919       .  S
C331        C332   1.403       .  A
C331        H335   1.085       .  S
C332        C336   1.475       .  S
C332        C333   1.406       .  A
C333        C334   1.396       .  A
C333       Br345   1.920       .  S
C334        H337   1.085       .  S
C336        C338   1.400       .  A
C336        C342   1.408       .  A
C338        C339   1.396       .  A
C338        H343   1.084       .  S
C339        C340   1.413       .  A
C339       Br347   1.922       .  S
C340        C341   1.404       .  A
C341        C342   1.399       .  A
C341        H344   1.084       .  S
C342       Br348   1.919       .  S
C349        C350   1.412       .  A
C349        C354   1.406       .  A
C350        C351   1.402       .  A
C350       Br366   1.920       .  S
C351        C352   1.403       .  A
C351        H355   1.084       .  S
C352        C356   1.481       .  S
C352        C353   1.406       .  A
C353        C354   1.400       .  A
C353       Br365   1.918       .  S
C354        H357   1.084       .  S
C356        C358   1.402       .  A
C356        C362   1.405       .  A
C358        C359   1.403       .  A
C358        H363   1.085       .  S
C359        C360   1.418       .  A
C359       Br367   1.922       .  S
C360        C361   1.408       .  A
C361        C362   1.400       .  A
C361        H364   1.084       .  S
C362       Br368   1.918       .  S
C369        C370   1.411   1_655  A
C369        C374   1.406       .  A
C370        C371   1.403       .  A
C370       Br386   1.916       .  S
C371        C372   1.404       .  A
C371        H375   1.085       .  S
C372        C376   1.479       .  S
C372        C373   1.405       .  A
C373        C374   1.398   1_455  A
C373       Br385   1.919       .  S
C374        H377   1.085       .  S
C376        C378   1.401       .  A
C376        C382   1.405       .  A
C378        C379   1.399       .  A
C378        H383   1.085       .  S
C379        C380   1.417       .  A
C379       Br387   1.922       .  S
C380        C381   1.409       .  A
C381        C382   1.401       .  A
C381        H384   1.084       .  S
C382       Br388   1.918       .  S
C389        C390   1.411   1_655  A
C389        C394   1.404       .  A
C390        C391   1.401       .  A
C390       Br406   1.916   1_545  S
C391        C392   1.402       .  A
C391        H395   1.086       .  S
C392        C396   1.473       .  S
C392        C393   1.405       .  A
C393        C394   1.395   1_455  A
C393       Br405   1.919       .  S
C394        H397   1.086       .  S
C396        C398   1.399       .  A
C396        C402   1.407       .  A
C398        C399   1.397       .  A
C398        H403   1.086       .  S
C399        C400   1.415       .  A
C399       Br407   1.922       .  S
C400        C401   1.404       .  A
C401        C402   1.399       .  A
C401        H404   1.086       .  S
C402       Br408   1.918       .  S
C409        C410   1.420       .  A
C409        C414   1.411       .  A
C410        C411   1.402       .  A
C410       Br426   1.923       .  S
C411        C412   1.401       .  A
C411        H415   1.084       .  S
C412        C416   1.481       .  S
C412        C413   1.404       .  A
C413        C414   1.400       .  A
C413       Br425   1.918       .  S
C414        H417   1.083       .  S
C416        C418   1.404       .  A
C416        C422   1.405       .  A
C418        C419   1.404       .  A
C418        H423   1.084       .  S
C419        C420   1.413       .  A
C419       Br427   1.919       .  S
C420        C421   1.406       .  A
C421        C422   1.399       .  A
C421        H424   1.084       .  S
C422       Br428   1.918       .  S
C429        C430   1.415       .  A
C429        C434   1.404       .  A
C430        C431   1.399       .  A
C430       Br446   1.921       .  S
C431        C432   1.400       .  A
C431        H435   1.085       .  S
C432        C436   1.484       .  S
C432        C433   1.410       .  A
C433        C434   1.405       .  A
C433       Br445   1.916       .  S
C434        H437   1.084       .  S
C436        C438   1.398       .  A
C436        C442   1.408       .  A
C438        C439   1.397       .  A
C438        H443   1.085       .  S
C439        C440   1.420       .  A
C439       Br447   1.925       .  S
C440        C441   1.409       .  A
C441        C442   1.408       .  A
C441        H444   1.084       .  S
C442       Br448   1.916       .  S
C449        C450   1.421       .  A
C449        C454   1.410       .  A
C450        C451   1.408       .  A
C450       Br466   1.920       .  S
C451        C452   1.403       .  A
C451        H455   1.082       .  S
C452        C456   1.485       .  S
C452        C453   1.406       .  A
C453        C454   1.397       .  A
C453       Br465   1.921       .  S
C454        H457   1.082       .  S
C456        C458   1.406       .  A
C456        C462   1.407       .  A
C458        C459   1.406       .  A
C458        H463   1.083       .  S
C459        C460   1.410       .  A
C459       Br467   1.917       .  S
C460        C461   1.406       .  A
C461        C462   1.399       .  A
C461        H464   1.083       .  S
C462       Br468   1.919       .  S
C469        C470   1.416       .  A
C469        C474   1.408       .  A
C470        C471   1.401       .  A
C470       Br486   1.922       .  S
C471        C472   1.402       .  A
C471        H475   1.084       .  S
C472        C476   1.489       .  S
C472        C473   1.409       .  A
C473        C474   1.406       .  A
C473       Br485   1.917       .  S
C474        H477   1.083       .  S
C476        C478   1.404       .  A
C476        C482   1.411       .  A
C478        C479   1.403       .  A
C478        H483   1.083       .  S
C479        C480   1.410       .  A
C479       Br487   1.918       .  S
C480        C481   1.403       .  A
C481        C482   1.404       .  A
C481        H484   1.083       .  S
C482       Br488   1.918       .  S
C489        C490   1.410       .  A
C489        C494   1.405       .  A
C490        C491   1.404       .  A
C490       Br506   1.918   1_554  S
C491        C492   1.405       .  A
C491        H495   1.083       .  S
C492        C496   1.481       .  S
C492        C493   1.406       .  A
C493        C494   1.398       .  A
C493       Br505   1.919       .  S
C494        H497   1.083       .  S
C496        C498   1.404       .  A
C496        C502   1.406       .  A
C498        C499   1.406       .  A
C498        H503   1.082       .  S
C499        C500   1.417       .  A
C499       Br507   1.920       .  S
C500        C501   1.407       .  A
C501        C502   1.395       .  A
C501        H504   1.083       .  S
C502       Br508   1.921       .  S
C509        C510   1.420       .  A
C509        C514   1.409       .  A
C510        C511   1.400       .  A
C510       Br526   1.920       .  S
C511        C512   1.400       .  A
C511        H515   1.084       .  S
C512        C516   1.476   1_545  S
C512        C513   1.404       .  A
C513        C514   1.395       .  A
C513       Br525   1.920   1_545  S
C514        H517   1.083       .  S
C516        C518   1.402       .  A
C516        C522   1.407       .  A
C518        C519   1.397       .  A
C518        H523   1.087       .  S
C519        C520   1.411       .  A
C519       Br527   1.920       .  S
C520        C521   1.404       .  A
C521        C522   1.397       .  A
C521        H524   1.086   1_554  S
C522       Br528   1.919   1_565  S
C529        C530   1.413       .  A
C529        C534   1.407       .  A
C530        C531   1.400       .  A
C530       Br546   1.920       .  S
C531        C532   1.402       .  A
C531        H535   1.084   1_565  S
C532        C536   1.477   1_565  S
C532        C533   1.405       .  A
C533        C534   1.399       .  A
C533       Br545   1.918       .  S
C534        H537   1.083       .  S
C536        C538   1.402       .  A
C536        C542   1.406       .  A
C538        C539   1.399       .  A
C538        H543   1.083   1_545  S
C539        C540   1.413       .  A
C539       Br547   1.921       .  S
C540        C541   1.406       .  A
C541        C542   1.400       .  A
C541        H544   1.084       .  S
C542       Br548   1.918       .  S
C549        C550   1.411       .  A
C549        C554   1.403       .  A
C550        C551   1.399       .  A
C550       Br566   1.920       .  S
C551        C552   1.402       .  A
C551        H555   1.085       .  S
C552        C556   1.489       .  S
C552        C553   1.413       .  A
C553        C554   1.406       .  A
C553       Br565   1.919       .  S
C554        H557   1.085       .  S
C556        C558   1.401       .  A
C556        C562   1.411       .  A
C558        C559   1.396       .  A
C558        H563   1.085       .  S
C559        C560   1.413       .  A
C559       Br567   1.919       .  S
C560        C561   1.407       .  A
C561        C562   1.408       .  A
C561        H564   1.084       .  S
C562       Br568   1.917       .  S
C569        C570   1.420       .  A
C569        C574   1.411       .  A
C570        C571   1.401       .  A
C570       Br586   1.922       .  S
C571        C572   1.400       .  A
C571        H575   1.085       .  S
C572        C576   1.480       .  S
C572        C573   1.404       .  A
C573        C574   1.399       .  A
C573       Br585   1.919       .  S
C574        H577   1.085       .  S
C576        C578   1.403       .  A
C576        C582   1.407       .  A
C578        C579   1.400       .  A
C578        H583   1.082       .  S
C579        C580   1.411       .  A
C579       Br587   1.920       .  S
C580        C581   1.405       .  A
C581        C582   1.399       .  A
C581        H584   1.082       .  S
C582       Br588   1.918       .  S
C589        C590   1.409       .  A
C589        C594   1.405       .  A
C590        C591   1.399       .  A
C590       Br606   1.919       .  S
C591        C592   1.403       .  A
C591        H595   1.085       .  S
C592        C596   1.480       .  S
C592        C593   1.408       .  A
C593        C594   1.402       .  A
C593       Br605   1.917       .  S
C594        H597   1.084       .  S
C596        C598   1.404       .  A
C596        C602   1.408       .  A
C598        C599   1.404       .  A
C598        H603   1.083       .  S
C599        C600   1.409       .  A
C599       Br607   1.917       .  S
C600        C601   1.403       .  A
C601        C602   1.397       .  A
C601        H604   1.083       .  S
C602       Br608   1.921       .  S
C609        C610   1.410       .  A
C609        C614   1.404       .  A
C610        C611   1.398       .  A
C610       Br626   1.920       .  S
C611        C612   1.401       .  A
C611        H615   1.084       .  S
C612        C616   1.487       .  S
C612        C613   1.411       .  A
C613        C614   1.406       .  A
C613       Br625   1.917       .  S
C614        H617   1.084       .  S
C616        C618   1.402       .  A
C616        C622   1.407       .  A
C618        C619   1.401       .  A
C618        H623   1.084       .  S
C619        C620   1.420       .  A
C619       Br627   1.924       .  S
C620        C621   1.409       .  A
C621        C622   1.403       .  A
C621        H624   1.084       .  S
C622       Br628   1.916       .  S
C629        C630   1.408       .  A
C629        C634   1.401       .  A
C630        C631   1.403       .  A
C630       Br646   1.918       .  S
C631        C632   1.405       .  A
C631        H635   1.083       .  S
C632        C636   1.482       .  S
C632        C633   1.410       .  A
C633        C634   1.398       .  A
C633       Br645   1.919       .  S
C634        H637   1.083       .  S
C636        C638   1.401       .  A
C636        C642   1.408       .  A
C638        C639   1.398       .  A
C638        H643   1.085       .  S
C639        C640   1.413       .  A
C639       Br647   1.921       .  S
C640        C641   1.408       .  A
C641        C642   1.404       .  A
C641        H644   1.084       .  S
C642       Br648   1.917       .  S
C649        C650   1.416       .  A
C649        C654   1.407       .  A
C650        C651   1.404       .  A
C650       Br666   1.921       .  S
C651        C652   1.404       .  A
C651        H655   1.085       .  S
C652        C656   1.484   1_556  S
C652        C653   1.406       .  A
C653        C654   1.399       .  A
C653       Br665   1.919       .  S
C654        H657   1.084       .  S
C656        C658   1.403       .  A
C656        C662   1.406       .  A
C658        C659   1.401       .  A
C658        H663   1.085   1_554  S
C659        C660   1.415       .  A
C659       Br667   1.920       .  S
C660        C661   1.408       .  A
C661        C662   1.400       .  A
C661        H664   1.085       .  S
C662       Br668   1.918       .  S
C669        C670   1.420       .  A
C669        C674   1.410       .  A
C670        C671   1.408       .  A
C670       Br686   1.920       .  S
C671        C672   1.402       .  A
C671        H675   1.083       .  S
C672        C676   1.481       .  S
C672        C673   1.404       .  A
C673        C674   1.395       .  A
C673       Br685   1.922       .  S
C674        H677   1.083       .  S
C676        C678   1.403       .  A
C676        C682   1.408       .  A
C678        C679   1.401       .  A
C678        H683   1.083       .  S
C679        C680   1.407       .  A
C679       Br687   1.918       .  S
C680        C681   1.403       .  A
C681        C682   1.401       .  A
C681        H684   1.083       .  S
C682       Br688   1.918       .  S
C689        C690   1.415       .  A
C689        C694   1.408       .  A
C690        C691   1.401       .  A
C690       Br706   1.920       .  S
C691        C692   1.401       .  A
C691        H695   1.085       .  S
C692        C696   1.475   1_556  S
C692        C693   1.403       .  A
C693        C694   1.396       .  A
C693       Br705   1.918       .  S
C694        H697   1.085       .  S
C696        C698   1.402       .  A
C696        C702   1.406       .  A
C698        C699   1.400       .  A
C698        H703   1.085   1_554  S
C699        C700   1.411       .  A
C699       Br707   1.921       .  S
C700        C701   1.402       .  A
C701        C702   1.398       .  A
C701        H704   1.085       .  S
C702       Br708   1.917       .  S
C709        C710   1.417       .  A
C709        C714   1.405       .  A
C710        C711   1.403       .  A
C710       Br726   1.922       .  S
C711        C712   1.402       .  A
C711        H715   1.084       .  S
C712        C716   1.483       .  S
C712        C713   1.408       .  A
C713        C714   1.400       .  A
C713       Br725   1.918       .  S
C714        H717   1.084       .  S
C716        C718   1.400       .  A
C716        C722   1.408       .  A
C718        C719   1.399       .  A
C718        H723   1.085       .  S
C719        C720   1.417       .  A
C719       Br727   1.922       .  S
C720        C721   1.408       .  A
C721        C722   1.405       .  A
C721        H724   1.084       .  S
C722       Br728   1.918       .  S
C729        C730   1.417       .  A
C729        C734   1.406       .  A
C730        C731   1.403       .  A
C730       Br746   1.921       .  S
C731        C732   1.401       .  A
C731        H735   1.083       .  S
C732        C736   1.480       .  S
C732        C733   1.408       .  A
C733        C734   1.398       .  A
C733       Br745   1.921       .  S
C734        H737   1.083       .  S
C736        C738   1.403       .  A
C736        C742   1.408       .  A
C738        C739   1.399       .  A
C738        H743   1.084       .  S
C739        C740   1.408       .  A
C739       Br747   1.919       .  S
C740        C741   1.403       .  A
C741        C742   1.401       .  A
C741        H744   1.083       .  S
C742       Br748   1.917       .  S
C749        C750   1.410       .  A
C749        C754   1.403       .  A
C750        C751   1.400       .  A
C750       Br766   1.917       .  S
C751        C752   1.403       .  A
C751        H755   1.084       .  S
C752        C756   1.487       .  S
C752        C753   1.412       .  A
C753        C754   1.402       .  A
C753       Br765   1.918       .  S
C754        H757   1.084       .  S
C756        C758   1.401       .  A
C756        C762   1.409       .  A
C758        C759   1.397       .  A
C758        H763   1.084       .  S
C759        C760   1.419       .  A
C759       Br767   1.924       .  S
C760        C761   1.409       .  A
C761        C762   1.406       .  A
C761        H764   1.083       .  S
C762       Br768   1.917       .  S
C769        C770   1.414       .  A
C769        C774   1.404       .  A
C770        C771   1.401       .  A
C770       Br786   1.921       .  S
C771        C772   1.401       .  A
C771        H775   1.085       .  S
C772        C776   1.474       .  S
C772        C773   1.405       .  A
C773        C774   1.396       .  A
C773       Br785   1.919       .  S
C774        H777   1.085       .  S
C776        C778   1.400       .  A
C776        C782   1.403       .  A
C778        C779   1.401       .  A
C778        H783   1.084       .  S
C779        C780   1.416   1_655  A
C779       Br787   1.916   1_655  S
C780        C781   1.408   1_455  A
C781        C782   1.396       .  A
C781        H784   1.084       .  S
C782       Br788   1.919       .  S
C789        C790   1.409       .  A
C789        C794   1.404       .  A
C790        C791   1.403       .  A
C790       Br806   1.918       .  S
C791        C792   1.404       .  A
C791        H795   1.083       .  S
C792        C796   1.482       .  S
C792        C793   1.407       .  A
C793        C794   1.399       .  A
C793       Br805   1.918       .  S
C794        H797   1.083       .  S
C796        C798   1.402       .  A
C796        C802   1.407       .  A
C798        C799   1.407       .  A
C798        H803   1.083       .  S
C799        C800   1.421       .  A
C799       Br807   1.920       .  S
C800        C801   1.409       .  A
C801        C802   1.395       .  A
C801        H804   1.083       .  S
C802       Br808   1.922       .  S
C809        C810   1.410       .  A
C809        C814   1.405       .  A
C810        C811   1.400       .  A
C810       Br826   1.919       .  S
C811        C812   1.404       .  A
C811        H815   1.086       .  S
C812        C816   1.483       .  S
C812        C813   1.408       .  A
C813        C814   1.401       .  A
C813       Br825   1.918       .  S
C814        H817   1.085   1_655  S
C816        C818   1.402       .  A
C816        C822   1.404       .  A
C818        C819   1.402       .  A
C818        H823   1.084       .  S
C819        C820   1.419       .  A
C819       Br827   1.922       .  S
C820        C821   1.412       .  A
C821        C822   1.399       .  A
C821        H824   1.083       .  S
C822       Br828   1.919       .  S
C829        C830   1.418       .  A
C829        C834   1.407       .  A
C830        C831   1.399       .  A
C830       Br846   1.922       .  S
C831        C832   1.400       .  A
C831        H835   1.085       .  S
C832        C836   1.476       .  S
C832        C833   1.405       .  A
C833        C834   1.398       .  A
C833       Br845   1.918       .  S
C834        H837   1.085       .  S
C836        C838   1.401       .  A
C836        C842   1.406       .  A
C838        C839   1.400       .  A
C838        H843   1.086       .  S
C839        C840   1.415       .  A
C839       Br847   1.922       .  S
C840        C841   1.405       .  A
C841        C842   1.397       .  A
C841        H844   1.085       .  S
C842       Br848   1.919       .  S
C849        C850   1.418       .  A
C849        C854   1.408       .  A
C850        C851   1.408       .  A
C850       Br866   1.920       .  S
C851        C852   1.403       .  A
C851        H855   1.083       .  S
C852        C856   1.483       .  S
C852        C853   1.406       .  A
C853        C854   1.396       .  A
C853       Br865   1.921       .  S
C854        H857   1.083       .  S
C856        C858   1.405       .  A
C856        C862   1.406       .  A
C858        C859   1.405       .  A
C858        H863   1.083       .  S
C859        C860   1.411       .  A
C859       Br867   1.918       .  S
C860        C861   1.407       .  A
C861        C862   1.399       .  A
C861        H864   1.084       .  S
C862       Br868   1.919       .  S
C869        C870   1.421       .  A
C869        C874   1.410       .  A
C870        C871   1.406       .  A
C870       Br886   1.920       .  S
C871        C872   1.401       .  A
C871        H875   1.083       .  S
C872        C876   1.479       .  S
C872        C873   1.404       .  A
C873        C874   1.394       .  A
C873       Br885   1.922       .  S
C874        H877   1.082       .  S
C876        C878   1.405       .  A
C876        C882   1.406       .  A
C878        C879   1.403       .  A
C878        H883   1.083       .  S
C879        C880   1.409       .  A
C879       Br887   1.918       .  S
C880        C881   1.404       .  A
C881        C882   1.397       .  A
C881        H884   1.084       .  S
C882       Br888   1.918       .  S
C889        C890   1.414       .  A
C889        C894   1.405       .  A
C890        C891   1.398       .  A
C890       Br906   1.921       .  S
C891        C892   1.400       .  A
C891        H895   1.084       .  S
C892        C896   1.482       .  S
C892        C893   1.409       .  A
C893        C894   1.404       .  A
C893       Br905   1.918       .  S
C894        H897   1.084       .  S
C896        C898   1.402       .  A
C896        C902   1.407       .  A
C898        C899   1.403       .  A
C898        H903   1.084       .  S
C899        C900   1.418       .  A
C899       Br907   1.922       .  S
C900        C901   1.407       .  A
C901        C902   1.399       .  A
C901        H904   1.084       .  S
C902       Br908   1.919       .  S
C909        C910   1.420       .  A
C909        C914   1.410       .  A
C910        C911   1.400       .  A
C910       Br926   1.920       .  S
C911        C912   1.400       .  A
C911        H915   1.083       .  S
C912        C916   1.483       .  S
C912        C913   1.407       .  A
C913        C914   1.400       .  A
C913       Br925   1.919       .  S
C914        H917   1.083       .  S
C916        C918   1.402       .  A
C916        C922   1.409       .  A
C918        C919   1.401       .  A
C918        H923   1.085       .  S
C919        C920   1.416       .  A
C919       Br927   1.921       .  S
C920        C921   1.405       .  A
C921        C922   1.399       .  A
C921        H924   1.085       .  S
C922       Br928   1.919       .  S
C929        C930   1.410       .  A
C929        C934   1.408       .  A
C930        C931   1.395       .  A
C930       Br946   1.918       .  S
C931        C932   1.402       .  A
C931        H935   1.084       .  S
C932        C936   1.490       .  S
C932        C933   1.412       .  A
C933        C934   1.408       .  A
C933       Br945   1.918       .  S
C934        H937   1.084       .  S
C936        C938   1.403       .  A
C936        C942   1.414       .  A
C938        C939   1.400       .  A
C938        H943   1.084       .  S
C939        C940   1.410       .  A
C939       Br947   1.920       .  S
C940        C941   1.401       .  A
C941        C942   1.403       .  A
C941        H944   1.085       .  S
C942       Br948   1.919       .  S
C949        C950   1.412       .  A
C949        C954   1.407       .  A
C950        C951   1.401       .  A
C950       Br966   1.920       .  S
C951        C952   1.403       .  A
C951        H955   1.085       .  S
C952        C956   1.485       .  S
C952        C953   1.407       .  A
C953        C954   1.403       .  A
C953       Br965   1.917       .  S
C954        H957   1.085       .  S
C956        C958   1.404       .  A
C956        C962   1.411       .  A
C958        C959   1.404       .  A
C958        H963   1.083       .  S
C959        C960   1.408       .  A
C959       Br967   1.917       .  S
C960        C961   1.402       .  A
C961        C962   1.400       .  A
C961        H964   1.083       .  S
C962       Br968   1.920       .  S
C969        C970   1.419       .  A
C969        C974   1.408       .  A
C970        C971   1.399       .  A
C970       Br986   1.923       .  S
C971        C972   1.399       .  A
C971        H975   1.083       .  S
C972        C976   1.481       .  S
C972        C973   1.408       .  A
C973        C974   1.401       .  A
C973       Br985   1.919   1_554  S
C974        H977   1.083   1_554  S
C976        C978   1.399       .  A
C976        C982   1.408       .  A
C978        C979   1.399       .  A
C978        H983   1.084       .  S
C979        C980   1.419       .  A
C979       Br987   1.923       .  S
C980        C981   1.407       .  A
C981        C982   1.401       .  A
C981        H984   1.084       .  S
C982       Br988   1.919       .  S
C989        C990   1.423       .  A
C989        C994   1.409       .  A
C990        C991   1.407       .  A
C990      Br1006   1.921       .  S
C991        C992   1.401       .  A
C991        H995   1.083       .  S
C992        C996   1.482       .  S
C992        C993   1.405       .  A
C993        C994   1.396       .  A
C993      Br1005   1.921       .  S
C994        H997   1.082       .  S
C996        C998   1.404       .  A
C996       C1002   1.406       .  A
C998        C999   1.405       .  A
C998       H1003   1.083       .  S
C999       C1000   1.410       .  A
C999      Br1007   1.918   1_554  S
C1000      C1001   1.406       .  A
C1001      C1002   1.399       .  A
C1001      H1004   1.083       .  S
C1002     Br1008   1.919       .  S
C1009      C1010   1.407       .  A
C1009      C1014   1.404       .  A
C1010      C1011   1.402       .  A
C1010     Br1026   1.918       .  S
C1011      C1012   1.405       .  A
C1011      H1015   1.084       .  S
C1012      C1016   1.484       .  S
C1012      C1013   1.408       .  A
C1013      C1014   1.399       .  A
C1013     Br1025   1.919       .  S
C1014      H1017   1.084       .  S
C1016      C1018   1.402       .  A
C1016      C1022   1.409       .  A
C1018      C1019   1.405       .  A
C1018      H1023   1.083       .  S
C1019      C1020   1.419       .  A
C1019     Br1027   1.920       .  S
C1020      C1021   1.407       .  A
C1021      C1022   1.397       .  A
C1021      H1024   1.083       .  S
C1022     Br1028   1.922       .  S
C1029      C1030   1.415       .  A
C1029      C1034   1.407       .  A
C1030      C1031   1.402       .  A
C1030     Br1046   1.921       .  S
C1031      C1032   1.402       .  A
C1031      H1035   1.085       .  S
C1032      C1036   1.483       .  S
C1032      C1033   1.407       .  A
C1033      C1034   1.402       .  A
C1033     Br1045   1.918       .  S
C1034      H1037   1.085       .  S
C1036      C1038   1.402       .  A
C1036      C1042   1.404       .  A
C1038      C1039   1.404       .  A
C1038      H1043   1.084       .  S
C1039      C1040   1.419       .  A
C1039     Br1047   1.921       .  S
C1040      C1041   1.412       .  A
C1041      C1042   1.399       .  A
C1041      H1044   1.084       .  S
C1042     Br1048   1.919       .  S
C1049      C1050   1.411       .  A
C1049      C1054   1.406       .  A
C1050      C1051   1.401       .  A
C1050     Br1066   1.920       .  S
C1051      C1052   1.403       .  A
C1051      H1055   1.085       .  S
C1052      C1056   1.485       .  S
C1052      C1053   1.409       .  A
C1053      C1054   1.403       .  A
C1053     Br1065   1.918       .  S
C1054      H1057   1.085       .  S
C1056      C1058   1.406       .  A
C1056      C1062   1.410       .  A
C1058      C1059   1.406       .  A
C1058      H1063   1.083       .  S
C1059      C1060   1.409       .  A
C1059     Br1067   1.917       .  S
C1060      C1061   1.402       .  A
C1061      C1062   1.399       .  A
C1061      H1064   1.083       .  S
C1062     Br1068   1.920       .  S
C1069      C1070   1.420       .  A
C1069      C1074   1.410       .  A
C1070      C1071   1.403       .  A
C1070     Br1086   1.922       .  S
C1071      C1072   1.402       .  A
C1071      H1075   1.084       .  S
C1072      C1076   1.482       .  S
C1072      C1073   1.405       .  A
C1073      C1074   1.397       .  A
C1073     Br1085   1.920       .  S
C1074      H1077   1.083       .  S
C1076      C1078   1.402       .  A
C1076      C1082   1.409       .  A
C1078      C1079   1.399       .  A
C1078      H1083   1.085       .  S
C1079      C1080   1.413       .  A
C1079     Br1087   1.921       .  S
C1080      C1081   1.406       .  A
C1081      C1082   1.401       .  A
C1081      H1084   1.085       .  S
C1082     Br1088   1.919       .  S
C1089      C1090   1.412       .  A
C1089      C1094   1.405       .  A
C1090      C1091   1.398       .  A
C1090     Br1106   1.921       .  S
C1091      C1092   1.402       .  A
C1091      H1095   1.084       .  S
C1092      C1096   1.482       .  S
C1092      C1093   1.410       .  A
C1093      C1094   1.402       .  A
C1093     Br1105   1.919       .  S
C1094      H1097   1.084       .  S
C1096      C1098   1.401       .  A
C1096      C1102   1.408       .  A
C1098      C1099   1.401       .  A
C1098      H1103   1.084       .  S
C1099      C1100   1.419       .  A
C1099     Br1107   1.922       .  S
C1100      C1101   1.407       .  A
C1101      C1102   1.398       .  A
C1101      H1104   1.084       .  S
C1102     Br1108   1.920       .  S
C1109      C1110   1.414       .  A
C1109      C1114   1.408       .  A
C1110      C1111   1.400       .  A
C1110     Br1126   1.922       .  S
C1111      C1112   1.401       .  A
C1111      H1115   1.085       .  S
C1112      C1116   1.483       .  S
C1112      C1113   1.407       .  A
C1113      C1114   1.404       .  A
C1113     Br1125   1.917       .  S
C1114      H1117   1.084       .  S
C1116      C1118   1.404       .  A
C1116      C1122   1.408       .  A
C1118      C1119   1.405       .  A
C1118      H1123   1.083       .  S
C1119      C1120   1.409       .  A
C1119     Br1127   1.917       .  S
C1120      C1121   1.403       .  A
C1121      C1122   1.399       .  A
C1121      H1124   1.084       .  S
C1122     Br1128   1.919       .  S
C1129      C1130   1.410       .  A
C1129      C1134   1.404       .  A
C1130      C1131   1.398       .  A
C1130     Br1146   1.920       .  S
C1131      C1132   1.402       .  A
C1131      H1135   1.084       .  S
C1132      C1136   1.478       .  S
C1132      C1133   1.408       .  A
C1133      C1134   1.401       .  A
C1133     Br1145   1.918       .  S
C1134      H1137   1.084       .  S
C1136      C1138   1.401       .  A
C1136      C1142   1.407       .  A
C1138      C1139   1.400       .  A
C1138      H1143   1.085       .  S
C1139      C1140   1.415       .  A
C1139     Br1147   1.921       .  S
C1140      C1141   1.408       .  A
C1141      C1142   1.398       .  A
C1141      H1144   1.085       .  S
C1142     Br1148   1.920       .  S
C1149      C1150   1.422       .  A
C1149      C1154   1.410       .  A
C1150      C1151   1.409       .  A
C1150     Br1166   1.921       .  S
C1151      C1152   1.403       .  A
C1151      H1155   1.083       .  S
C1152      C1156   1.484       .  S
C1152      C1153   1.405       .  A
C1153      C1154   1.395       .  A
C1153     Br1165   1.922       .  S
C1154      H1157   1.083       .  S
C1156      C1158   1.406       .  A
C1156      C1162   1.407       .  A
C1158      C1159   1.405       .  A
C1158      H1163   1.083       .  S
C1159      C1160   1.408       .  A
C1159     Br1167   1.917       .  S
C1160      C1161   1.403       .  A
C1161      C1162   1.399       .  A
C1161      H1164   1.083       .  S
C1162     Br1168   1.918       .  S
C1169      C1170   1.417       .  A
C1169      C1174   1.410       .  A
C1170      C1171   1.398       .  A
C1170     Br1186   1.922       .  S
C1171      C1172   1.399       .  A
C1171      H1175   1.085       .  S
C1172      C1176   1.485       .  S
C1172      C1173   1.408       .  A
C1173      C1174   1.407       .  A
C1173     Br1185   1.917       .  S
C1174      H1177   1.084       .  S
C1176      C1178   1.405       .  A
C1176      C1182   1.410       .  A
C1178      C1179   1.404       .  A
C1178      H1183   1.084       .  S
C1179      C1180   1.408       .  A
C1179     Br1187   1.918       .  S
C1180      C1181   1.401       .  A
C1181      C1182   1.401       .  A
C1181      H1184   1.084       .  S
C1182     Br1188   1.919       .  S
C1189      C1190   1.419       .  A
C1189      C1194   1.410       .  A
C1190      C1191   1.398       .  A
C1190     Br1206   1.923       .  S
C1191      C1192   1.400       .  A
C1191      H1195   1.086       .  S
C1192      C1196   1.485       .  S
C1192      C1193   1.408       .  A
C1193      C1194   1.403       .  A
C1193     Br1205   1.919       .  S
C1194      H1197   1.085       .  S
C1196      C1198   1.405       .  A
C1196      C1202   1.409       .  A
C1198      C1199   1.404       .  A
C1198      H1203   1.085       .  S
C1199      C1200   1.414       .  A
C1199     Br1207   1.920       .  S
C1200      C1201   1.404       .  A
C1201      C1202   1.396       .  A
C1201      H1204   1.085       .  S
C1202     Br1208   1.920       .  S
C1209      C1210   1.415       .  A
C1209      C1214   1.405       .  A
C1210      C1211   1.400       .  A
C1210     Br1226   1.922   1_545  S
C1211      C1212   1.401       .  A
C1211      H1215   1.085       .  S
C1212      C1216   1.474       .  S
C1212      C1213   1.404       .  A
C1213      C1214   1.397       .  A
C1213     Br1225   1.918       .  S
C1214      H1217   1.085       .  S
C1216      C1218   1.401       .  A
C1216      C1222   1.404       .  A
C1218      C1219   1.398       .  A
C1218      H1223   1.085       .  S
C1219      C1220   1.413       .  A
C1219     Br1227   1.921       .  S
C1220      C1221   1.407       .  A
C1221      C1222   1.399       .  A
C1221      H1224   1.085       .  S
C1222     Br1228   1.918       .  S
C1229      C1230   1.410       .  A
C1229      C1234   1.404       .  A
C1230      C1231   1.408       .  A
C1230     Br1246   1.917       .  S
C1231      C1232   1.406       .  A
C1231      H1235   1.083       .  S
C1232      C1236   1.485       .  S
C1232      C1233   1.407       .  A
C1233      C1234   1.398       .  A
C1233     Br1245   1.920       .  S
C1234      H1237   1.084       .  S
C1236      C1238   1.403       .  A
C1236      C1242   1.408       .  A
C1238      C1239   1.402       .  A
C1238      H1243   1.085       .  S
C1239      C1240   1.413       .  A
C1239     Br1247   1.920       .  S
C1240      C1241   1.406       .  A
C1241      C1242   1.404       .  A
C1241      H1244   1.084       .  S
C1242     Br1248   1.916       .  S
C1249      C1250   1.408       .  A
C1249      C1254   1.402       .  A
C1250      C1251   1.398       .  A
C1250     Br1266   1.919       .  S
C1251      C1252   1.402       .  A
C1251      H1255   1.083       .  S
C1252      C1256   1.477       .  S
C1252      C1253   1.409       .  A
C1253      C1254   1.401       .  A
C1253     Br1265   1.918       .  S
C1254      H1257   1.083       .  S
C1256      C1258   1.399       .  A
C1256      C1262   1.405       .  A
C1258      C1259   1.396       .  A
C1258      H1263   1.085       .  S
C1259      C1260   1.418       .  A
C1259     Br1267   1.925       .  S
C1260      C1261   1.409       .  A
C1261      C1262   1.402       .  A
C1261      H1264   1.084       .  S
C1262     Br1268   1.917       .  S
C1269      C1270   1.418       .  A
C1269      C1274   1.409       .  A
C1270      C1271   1.400       .  A
C1270     Br1286   1.922       .  S
C1271      C1272   1.400       .  A
C1271      H1275   1.086       .  S
C1272      C1276   1.476       .  S
C1272      C1273   1.404       .  A
C1273      C1274   1.399       .  A
C1273     Br1285   1.918       .  S
C1274      H1277   1.085       .  S
C1276      C1278   1.402       .  A
C1276      C1282   1.405       .  A
C1278      C1279   1.400       .  A
C1278      H1283   1.085       .  S
C1279      C1280   1.413       .  A
C1279     Br1287   1.921       .  S
C1280      C1281   1.406       .  A
C1281      C1282   1.398       .  A
C1281      H1284   1.085       .  S
C1282     Br1288   1.918       .  S
