geometry optimzed in LAMMPS
_audit_creation_date              2020-11-30 
_audit_creation_method            'lammps2cif' 
_symmetry_space_group_name_H-M    'P1' 
_symmetry_Int_Tables_number       1 
_symmetry_cell_setting            triclinic 
loop_ 
_symmetry_equiv_pos_as_xyz 
  x,y,z 
_cell_length_a                    35.03487308 
_cell_length_b                    35.046335943664374 
_cell_length_c                    44.19360411881927 
_cell_angle_alpha                 89.6912995427462 
_cell_angle_beta                  89.04627075485588 
_cell_angle_gamma                 89.60732681343778 
loop_ 
_atom_site_label 
_atom_site_type_symbol 
_atom_site_fract_x 
_atom_site_fract_y 
_atom_site_fract_z 
_atom_site_charge 
Zr1        Zr  0.75224696  0.11304368  0.44399882     2.17500
O2          O  0.73287197  0.15818761  0.40480409    -0.52200
O3          O  0.68965785  0.08287597  0.43975166    -0.75400
O4          O  0.76556055  0.08704507  0.39270880    -0.82200
O5          O  0.72041647  0.18241995  0.01297775    -0.83900
O6          O  0.82068873  0.05246557  0.39233962    -0.79500
O7          O  0.72003612  0.17282758  0.45865106    -0.91200
O8          O  0.69197872  0.03043219  0.47017224    -0.77100
O9          O  0.77075504  0.04794278  0.44887143    -0.86600
O10         O  0.72996012  0.09667862  0.99474324    -0.86300
O11         O  0.82066716  0.11259940  0.43814421    -0.73100
O12         O  0.78472714  0.15233952  0.47985904    -0.85200
Zr13       Zr  0.85191044  0.06472356  0.03063009     2.26400
Zr14       Zr  0.83892042  0.04704014  0.44440070     2.06300
Zr15       Zr  0.76326723  0.13243339  0.03175740     2.10000
Zr16       Zr  0.74888793  0.03176090  0.99870322     1.78800
O17         O  0.77353408  0.19110625  0.05964352    -0.94000
O18         O  0.74900117  0.96673789  0.47335628    -0.41800
O19         O  0.78282746  0.06690926  0.03620150    -0.78400
O20         O  0.81649733  0.02898063  0.99356227    -0.97100
O21         O  0.87343262  0.08488022  0.47981694    -0.90400
O22         O  0.83176038  0.13012956  0.02734672    -0.93300
C23         C  0.67480665  0.05296048  0.45188579     1.00500
C24         C  0.71118009  0.19454001  0.98649443     1.13400
C25         C  0.79200713  0.06731462  0.37911981     1.04200
O26         O  0.82372303  0.98175236  0.43097747    -0.95400
O27         O  0.88918008  0.00422473  0.45838636    -0.91200
O28         O  0.88274025  0.00346567  0.01194917    -0.84300
C29         C  0.89462905  0.98740594  0.48358398     1.10800
O30         O  0.85144090  0.20620130  0.44338047    -0.97400
Zr31       Zr  0.85254149  0.14949812  0.47544906     1.88900
O32         O  0.91475173  0.09724464  0.03539145    -0.74000
O33         O  0.89165364  0.05226509  0.40780361    -0.53300
O34         O  0.89821532  0.15040925  0.43355903    -0.98000
O35         O  0.85084048  0.21286079  0.00724594    -0.55200
O36         O  0.91021641  0.15079252  0.00656832    -0.74600
C37         C  0.92823922  0.12899021  0.02488510     0.97800
O38         O  0.87860906  0.02039041  0.06764247    -0.63400
O39         O  0.70216995  0.11622903  0.05551237    -0.58200
O40         O  0.83245419  0.08363119  0.08417185    -0.94900
O41         O  0.77801965  0.11964811  0.08450344    -0.93300
O42         O  0.69101283  0.03537183  0.02995598    -0.93700
O43         O  0.74582702  0.98684978  0.04088632    -0.92400
C44         C  0.80531004  0.10253508  0.09822512     1.16600
H45         H  0.70278252  0.10033733  0.99741933     0.32600
H46         H  0.82050581  0.00190439  0.99521958     0.43400
H47         H  0.84306898  0.14489312  0.04322602     0.36900
H48         H  0.82787288  0.12178597  0.41822270     0.33400
H49         H  0.76308813  0.96587773  0.96219799     0.25200
H50         H  0.91470294  0.05649902  0.41995633     0.31200
H51         H  0.90291046  0.12324283  0.42880317     0.37100
H52         H  0.67115139  0.04664385  0.01699154     0.31500
H53         H  0.70779235  0.09418050  0.06884990     0.30400
H54         H  0.75227510  0.19224820  0.07466827     0.32100
H55         H  0.86469218  0.20844705  0.51907687     0.31000
H56         H  0.76986796  0.99081610  0.05187902     0.35000
H57         H  0.90036604  0.03412367  0.07644737     0.27800
H58         H  0.71040557  0.14644135  0.39534849     0.32000
H59         H  0.82597893  0.20586813  0.43400091     0.34900
H60         H  0.69656368  0.13751786  0.06955831     0.27500
H61         H  0.85963637  0.01806958  0.08438070     0.40300
H62         H  0.84047028  0.97600215  0.41329767     0.30400
H63         H  0.77456586  0.95524807  0.47635199     0.38000
H64         H  0.82524354  0.21400561  0.01703412     0.29900
H65         H  0.89513795  0.02621977  0.39953520     0.29900
H66         H  0.75317376  0.15759441  0.38896031     0.30200
Zr67       Zr  0.84960087  0.06475699  0.27892595     2.17500
O68         O  0.89743388  0.05873799  0.31833702    -0.52200
O69         O  0.87568658  0.99916101  0.26842706    -0.75400
O70         O  0.82299633  0.05846929  0.33131265    -0.82200
O71         O  0.91245461  0.12624031  0.23081037    -0.83900
O72         O  0.75881660  0.06846488  0.33291110    -0.79500
O73         O  0.91228118  0.09523367  0.27616730    -0.91200
O74         O  0.84538662  0.97629528  0.22740425    -0.77100
O75         O  0.79316215  0.02959670  0.26835410    -0.86600
O76         O  0.85332242  0.05374711  0.22547762    -0.86300
O77         O  0.79740620  0.10833905  0.29050029    -0.73100
O78         O  0.84968912  0.12609047  0.25314025    -0.85200
Zr79       Zr  0.74485885  0.11640338  0.19934871     2.26400
Zr80       Zr  0.74092871  0.07243696  0.28013421     2.06300
Zr81       Zr  0.85471908  0.11415947  0.20012648     2.10000
Zr82       Zr  0.79645239  0.01906828  0.21482499     1.78800
O83         O  0.86936544  0.17770017  0.18067096    -0.94000
O84         O  0.75853063  0.96479311  0.23225212    -0.41800
O85         O  0.79956201  0.07782140  0.18842381    -0.78400
O86         O  0.74306422  0.05689578  0.22738475    -0.97100
O87         O  0.74049155  0.13110438  0.25218118    -0.90400
O88         O  0.79980650  0.15412301  0.21004557    -0.93300
C89         C  0.87089188  0.97413501  0.24735221     1.00500
C90         C  0.92783037  0.11750250  0.25650683     1.13400
C91         C  0.79095242  0.06340721  0.34579790     1.04200
O92         O  0.71878055  0.00902771  0.29434668    -0.95400
O93         O  0.67684081  0.07393602  0.26011712    -0.91200
O94         O  0.68192103  0.08770916  0.20964776    -0.84300
C95         C  0.66336614  0.07584581  0.23333062     1.10800
O96         O  0.83900448  0.20219371  0.29484903    -0.97400
Zr97       Zr  0.79559519  0.16694428  0.26307819     1.88900
O98         O  0.72470604  0.18320438  0.20428346    -0.74000
O99         O  0.69286290  0.10277689  0.31288064    -0.53300
O100        O  0.77054295  0.18319393  0.31327623    -0.98000
O101        O  0.82014929  0.22716438  0.24314508    -0.55200
O102        O  0.73632427  0.19994144  0.25260073    -0.74600
C103        C  0.71869485  0.20407169  0.22771405     0.97800
O104        O  0.69485341  0.12682860  0.16238527    -0.63400
O105        O  0.90793210  0.09028667  0.16930604    -0.58200
O106        O  0.77198678  0.11017871  0.14639060    -0.94900
O107        O  0.83689639  0.10550274  0.14652180    -0.93300
O108        O  0.82643681  0.98813193  0.17128504    -0.93700
O109        O  0.75373338  0.00551536  0.17327598    -0.92400
C110        C  0.80483095  0.10603911  0.13245112     1.16600
H111        H  0.87632499  0.04019381  0.21965387     0.32600
H112        H  0.72287514  0.03964536  0.22240352     0.43400
H113        H  0.79991065  0.17710766  0.19791116     0.36900
H114        H  0.79883802  0.11750544  0.31091852     0.33400
H115        H  0.76559315  0.96075784  0.25362640     0.25200
H116        H  0.68800817  0.08468023  0.32978498     0.31200
H117        H  0.74246388  0.18390769  0.31121025     0.37100
H118        H  0.83172312  0.00914947  0.15678764     0.31500
H119        H  0.92875782  0.10876412  0.17207722     0.30400
H120        H  0.89752572  0.17816981  0.17862977     0.32100
H121        H  0.79841778  0.23932226  0.23268235     0.31000
H122        H  0.74418547  0.03078488  0.16651658     0.35000
H123        H  0.70396525  0.14813361  0.14943158     0.27800
H124        H  0.89163837  0.03475429  0.32937327     0.32000
H125        H  0.86013475  0.18405824  0.29886004     0.34900
H126        H  0.91671043  0.06680923  0.17966512     0.27500
H127        H  0.69576963  0.10415780  0.14911087     0.40300
H128        H  0.69367883  0.01348594  0.30439244     0.30400
H129        H  0.73179421  0.97410501  0.23326256     0.38000
H130        H  0.83844480  0.22018048  0.22677551     0.29900
H131        H  0.70596376  0.12458951  0.32220291     0.29900
H132        H  0.89191289  0.07940031  0.33303993     0.30200
Zr133      Zr  0.56370616  0.36379400  0.41511110     2.17500
O134        O  0.57362373  0.41074270  0.37464720    -0.52200
O135        O  0.49695938  0.39004960  0.41954417    -0.75400
O136        O  0.56379595  0.33794442  0.36258810    -0.82200
O137        O  0.60257296  0.42738774  0.47503807    -0.83900
O138        O  0.57122554  0.27338544  0.36261378    -0.79500
O139        O  0.59003938  0.42759925  0.42480436    -0.91200
O140        O  0.46366929  0.33889906  0.43472932    -0.77100
O141        O  0.52513193  0.30852009  0.42217079    -0.86600
O142        O  0.53946109  0.36680722  0.46620601    -0.86300
O143        O  0.60706768  0.30959930  0.40988753    -0.73100
O144        O  0.61832511  0.36198860  0.44816121    -0.85200
Zr145      Zr  0.59532453  0.25677401  0.50085401     2.26400
Zr146      Zr  0.56695326  0.25454286  0.41650230     2.06300
Zr147      Zr  0.59336251  0.36568108  0.49873152     2.10000
Zr148      Zr  0.50159377  0.31087734  0.47318926     1.78800
O149        O  0.64490208  0.39090366  0.02447380    -0.94000
O150        O  0.45450893  0.26266255  0.46071697    -0.41800
O151        O  0.55443093  0.31103035  0.50619311    -0.78400
O152        O  0.54120399  0.25615001  0.46755047    -0.97100
O153        O  0.61990512  0.25288181  0.45007395    -0.90400
O154        O  0.63542290  0.31123457  0.49471952    -0.93300
C155        C  0.46530398  0.37397573  0.42775056     1.00500
C156        C  0.60108335  0.44398624  0.44913707     1.13400
C157        C  0.56894073  0.30579609  0.34871299     1.04200
O158        O  0.50379871  0.24029656  0.39766136    -0.95400
O159        O  0.55897688  0.19073210  0.43940487    -0.91200
O160        O  0.57307401  0.19257686  0.48963709    -0.84300
C161        C  0.56161883  0.17527169  0.46595808     1.10800
O162        O  0.69645133  0.35188721  0.41335928    -0.97400
Zr163      Zr  0.65963760  0.30682728  0.44405906     1.88900
O164        O  0.66039914  0.23350293  0.00524161    -0.74000
O165        O  0.60216872  0.20862608  0.38541169    -0.53300
O166        O  0.69862522  0.28580474  0.40084538    -0.98000
O167        O  0.71042876  0.33046941  0.47592253    -0.55200
O168        O  0.68690148  0.24451157  0.45774342    -0.74600
C169        C  0.68409012  0.22306432  0.48132381     0.97800
O170        O  0.59257000  0.21836008  0.04798492    -0.63400
O171        O  0.54625734  0.41096449  0.02656603    -0.58200
O172        O  0.57788428  0.28287612  0.05210509    -0.94900
O173        O  0.57742087  0.34777413  0.05229131    -0.93300
O174        O  0.46209669  0.35654247  0.50086149    -0.93700
O175        O  0.46444480  0.27498036  0.01324418    -0.92400
C176        C  0.57376073  0.31529444  0.06555788     1.16600
H177        H  0.52485617  0.38978858  0.47007676     0.32600
H178        H  0.52396002  0.23552219  0.47195538     0.43400
H179        H  0.65184243  0.31405301  0.01119824     0.36900
H180        H  0.61938378  0.30992583  0.39021335     0.33400
H181        H  0.45740574  0.24193924  0.47582335     0.25200
H182        H  0.62218141  0.19829216  0.39880105     0.31200
H183        H  0.70605384  0.25897458  0.40484461     0.37100
H184        H  0.47891055  0.36727683  0.51635422     0.31500
H185        H  0.56283079  0.42392533  0.04118597     0.30400
H186        H  0.65174072  0.37145801  0.03982489     0.32100
H187        H  0.71331529  0.35774986  0.47046560     0.31000
H188        H  0.49265043  0.28024904  0.53298378     0.35000
H189        H  0.56795867  0.20462098  0.04782183     0.27800
H190        H  0.55141738  0.40881032  0.36118205     0.32000
H191        H  0.67920215  0.37407170  0.41051832     0.34900
H192        H  0.53953363  0.43106473  0.01172429     0.27500
H193        H  0.61231160  0.19829543  0.04512388     0.40300
H194        H  0.50657872  0.24071348  0.37532842     0.30400
H195        H  0.42957853  0.27464031  0.46589017     0.38000
H196        H  0.73392603  0.31800750  0.46791130     0.29900
H197        H  0.58441109  0.18714339  0.38252880     0.29900
H198        H  0.59585499  0.40164304  0.36246667     0.30200
Zr199      Zr  0.55673859  0.36735577  0.16645046     2.17500
O200        O  0.55167757  0.41428081  0.12551377    -0.52200
O201        O  0.48983543  0.39236462  0.17039078    -0.75400
O202        O  0.56202572  0.34631108  0.11302477    -0.82200
O203        O  0.60862268  0.42277093  0.22387399    -0.83900
O204        O  0.56556460  0.28159927  0.11114154    -0.79500
O205        O  0.59110121  0.42655164  0.17464837    -0.91200
O206        O  0.46079579  0.35993702  0.20880061    -0.77100
O207        O  0.52111109  0.31004207  0.17110425    -0.86600
O208        O  0.53428664  0.36625100  0.21822473    -0.86300
O209        O  0.60301593  0.31672709  0.15822014    -0.73100
O210        O  0.61088913  0.36495835  0.19963418    -0.85200
Zr211      Zr  0.59518393  0.25520731  0.24672467     2.26400
Zr212      Zr  0.56657074  0.25972414  0.16289860     2.06300
Zr213      Zr  0.58823944  0.36440151  0.25056899     2.10000
Zr214      Zr  0.49932745  0.30800236  0.22253294     1.78800
O215        O  0.64333290  0.38381008  0.27953666    -0.94000
O216        O  0.45403951  0.28109058  0.18733811    -0.41800
O217        O  0.55207713  0.30721497  0.25561251    -0.78400
O218        O  0.54086563  0.25566362  0.21370647    -0.97100
O219        O  0.61983785  0.25759953  0.19602201    -0.90400
O220        O  0.63230891  0.31233712  0.24294266    -0.93300
C221        C  0.46154408  0.38610912  0.18888549     1.00500
C222        C  0.60797939  0.43972034  0.19777231     1.13400
C223        C  0.56570847  0.31454706  0.09851717     1.04200
O224        O  0.50974273  0.23146901  0.14157445    -0.95400
O225        O  0.56359745  0.19386084  0.17722226    -0.91200
O226        O  0.57386309  0.19265017  0.22802039    -0.84300
C227        C  0.56465414  0.17683927  0.20281294     1.10800
O228        O  0.68593535  0.36418141  0.16104593    -0.97400
Zr229      Zr  0.65576524  0.31464256  0.19192137     1.88900
O230        O  0.66160506  0.23261449  0.24573200    -0.74000
O231        O  0.61189176  0.22736112  0.12919817    -0.53300
O232        O  0.69218387  0.29480756  0.14720345    -0.98000
O233        O  0.70469766  0.34390810  0.22264422    -0.55200
O234        O  0.69141365  0.25759870  0.20422088    -0.74600
C235        C  0.68902163  0.23359521  0.22603653     0.97800
O236        O  0.59740274  0.20788154  0.28756731    -0.63400
O237        O  0.55204597  0.41508212  0.27583203    -0.58200
O238        O  0.58112320  0.27548691  0.30013293    -0.94900
O239        O  0.57567455  0.34019130  0.30205071    -0.93300
O240        O  0.46601550  0.32797291  0.26864911    -0.93700
O241        O  0.45940964  0.26339959  0.25120392    -0.92400
C242        C  0.57525939  0.30702420  0.31484209     1.16600
H243        H  0.52000015  0.38894331  0.22353986     0.32600
H244        H  0.52413439  0.23414300  0.21622696     0.43400
H245        H  0.65251223  0.31225017  0.25756112     0.36900
H246        H  0.61558888  0.31877601  0.13872170     0.33400
H247        H  0.45449449  0.25322727  0.19107984     0.25200
H248        H  0.63372203  0.22045407  0.14209722     0.31200
H249        H  0.68615529  0.26749360  0.14457127     0.37100
H250        H  0.48598970  0.32907311  0.28420156     0.31500
H251        H  0.52556075  0.40550289  0.27726502     0.30400
H252        H  0.63346900  0.40397367  0.29325031     0.32100
H253        H  0.69855756  0.37153363  0.22252143     0.31000
H254        H  0.46782057  0.23760367  0.24490979     0.35000
H255        H  0.60421179  0.18327663  0.27793442     0.27800
H256        H  0.57814476  0.42054201  0.11905391     0.32000
H257        H  0.67515439  0.38851589  0.16875933     0.34900
H258        H  0.56093826  0.41488604  0.29698484     0.27500
H259        H  0.62031957  0.21424881  0.29930487     0.40300
H260        H  0.49934372  0.25116732  0.12778298     0.30400
H261        H  0.42862786  0.28967402  0.19483682     0.38000
H262        H  0.72852759  0.34162659  0.21039659     0.29900
H263        H  0.59987136  0.20271238  0.12433762     0.29900
H264        H  0.54139111  0.43794794  0.13479914     0.30200
Zr265      Zr  0.44980898  0.97731017  0.42820101     2.17500
O266        O  0.39370964  0.99664302  0.40005161    -0.52200
O267        O  0.44573828  0.90829060  0.42004398    -0.75400
O268        O  0.46142453  0.98463235  0.37350190    -0.82200
O269        O  0.39623229  0.96730352  0.50340750    -0.83900
O270        O  0.51838611  0.01120032  0.36479737    -0.79500
O271        O  0.39226474  0.95600471  0.45295704    -0.91200
O272        O  0.49091897  0.88332214  0.45082845    -0.77100
O273        O  0.51589076  0.96162485  0.41989695    -0.86600
O274        O  0.46787392  0.94952145  0.47526400    -0.86300
O275        O  0.48327176  0.03626255  0.42189421    -0.73100
O276        O  0.43457688  0.02372848  0.46727029    -0.85200
Zr277      Zr  0.55834098  0.03997124  0.99496052     2.26400
Zr278      Zr  0.55016829  0.02079315  0.41330999     2.06300
Zr279      Zr  0.45977043  0.99562360  0.01573132     2.10000
Zr280      Zr  0.53349398  0.93372118  0.46645029     1.78800
O281        O  0.43248366  0.04780542  0.04550096    -0.94000
O282        O  0.56927249  0.89850506  0.42771677    -0.41800
O283        O  0.52379510  0.98235432  0.00318213    -0.78400
O284        O  0.56902994  0.99228300  0.45972040    -0.97100
O285        O  0.53199785  0.06471894  0.45022711    -0.90400
O286        O  0.48858753  0.05757322  0.50635417    -0.93300
C287        C  0.46201869  0.88015387  0.43360421     1.00500
C288        C  0.37893544  0.95503461  0.48008152     1.13400
C289        C  0.48208535  0.01078533  0.36113422     1.04200
O290        O  0.58932484  0.96922701  0.39166998    -0.95400
O291        O  0.61602393  0.04163106  0.42538930    -0.91200
O292        O  0.61771030  0.04580042  0.47665071    -0.84300
C293        C  0.63356640  0.04690384  0.45050161     1.10800
O294        O  0.41794093  0.08875890  0.42184586    -0.97400
Zr295      Zr  0.46870016  0.08214828  0.45905573     1.88900
O296        O  0.56583517  0.11010828  0.98822842    -0.74000
O297        O  0.57467251  0.06783730  0.37722905    -0.53300
O298        O  0.45262285  0.14860900  0.44738596    -0.98000
O299        O  0.42828733  0.10380445  0.50147471    -0.55200
O300        O  0.51789440  0.12873194  0.45319494    -0.74600
C301        C  0.54591679  0.13668928  0.46998768     0.97800
O302        O  0.58545863  0.06622886  0.04098335    -0.63400
O303        O  0.43169622  0.96684972  0.06103590    -0.58200
O304        O  0.56596982  0.00419207  0.04257259    -0.94900
O305        O  0.51027186  0.97247402  0.04975426    -0.93300
O306        O  0.53800649  0.89283509  0.01393036    -0.93700
O307        O  0.59425385  0.91212195  0.99173276    -0.92400
C308        C  0.54583454  0.97797602  0.05566397     1.16600
H309        H  0.45311891  0.92732625  0.48077298     0.32600
H310        H  0.59555304  0.98480502  0.45933584     0.43400
H311        H  0.49156993  0.07193442  0.02262979     0.36900
H312        H  0.47291940  0.04923754  0.40613988     0.33400
H313        H  0.57143867  0.87227374  0.43601094     0.25200
H314        H  0.58461026  0.08896480  0.38954438     0.31200
H315        H  0.42483133  0.15163291  0.45114423     0.37100
H316        H  0.51201293  0.88223367  0.01636613     0.31500
H317        H  0.40616985  0.97881607  0.06358424     0.30400
H318        H  0.40709899  0.05244298  0.03662554     0.32100
H319        H  0.40269502  0.10809204  0.49281732     0.31000
H320        H  0.60295539  0.93462435  0.00313221     0.35000
H321        H  0.60747851  0.08173552  0.03408634     0.27800
H322        H  0.38080259  0.97249844  0.39506643     0.32000
H323        H  0.39567389  0.07542628  0.43092177     0.34900
H324        H  0.42638398  0.94008530  0.05551143     0.27500
H325        H  0.56631919  0.08508907  0.04835886     0.40300
H326        H  0.59115281  0.97504769  0.36973589     0.30400
H327        H  0.55167674  0.89599809  0.41055451     0.38000
H328        H  0.43750154  0.12966471  0.50637175     0.29900
H329        H  0.59747686  0.05586160  0.36762275     0.29900
H330        H  0.37641867  0.00942201  0.41482610     0.30200
Zr331      Zr  0.47001311  0.95924418  0.17385890     2.17500
O332        O  0.44418028  0.96319602  0.12336199    -0.52200
O333        O  0.46782566  0.89369677  0.18245132    -0.75400
O334        O  0.52097795  0.91231022  0.15960463    -0.82200
O335        O  0.38097871  0.98865786  0.22206905    -0.83900
O336        O  0.55906897  0.92173206  0.19832939    -0.79500
O337        O  0.39992017  0.94673326  0.18557525    -0.91200
O338        O  0.47532665  0.88907338  0.23325591    -0.77100
O339        O  0.50902164  0.98589326  0.21086861    -0.86600
O340        O  0.44948265  0.96562140  0.22509897    -0.86300
O341        O  0.52523408  0.99656832  0.15802154    -0.73100
O342        O  0.45247446  0.02483757  0.17260387    -0.85200
Zr343      Zr  0.53100888  0.05993717  0.24766862     2.26400
Zr344      Zr  0.57386967  0.98793325  0.19588931     2.06300
Zr345      Zr  0.43229027  0.03280566  0.22430173     2.10000
Zr346      Zr  0.50083469  0.95075753  0.25563435     1.78800
O347        O  0.39987193  0.05872094  0.18026391    -0.94000
O348        O  0.55433033  0.90576023  0.25623362    -0.41800
O349        O  0.48006703  0.01656407  0.26111337    -0.78400
O350        O  0.55347243  0.99425717  0.24725809    -0.97100
O351        O  0.55717779  0.05268125  0.19772719    -0.90400
O352        O  0.48336634  0.07409454  0.21156037    -0.93300
C353        C  0.46601752  0.87517680  0.20700802     1.00500
C354        C  0.37528116  0.95947128  0.20566129     1.13400
C355        C  0.55126425  0.90396577  0.17453042     1.04200
O356        O  0.62181593  0.95036625  0.22235151    -0.95400
O357        O  0.62116633  0.03664880  0.20697727    -0.91200
O358        O  0.59966270  0.06685416  0.24933046    -0.84300
C359        C  0.62558192  0.05936869  0.22938820     1.10800
O360        O  0.48734504  0.06593110  0.10975314    -0.97400
Zr361      Zr  0.50834876  0.06361365  0.16208930     1.88900
O362        O  0.55127381  0.12091767  0.22945646    -0.74000
O363        O  0.60898396  0.98071986  0.14804056    -0.53300
O364        O  0.56508756  0.06642388  0.12941591    -0.98000
O365        O  0.46451308  0.11361627  0.14544847    -0.55200
O366        O  0.53788522  0.12305764  0.17913828    -0.74600
C367        C  0.55097448  0.13753053  0.20368651     0.97800
O368        O  0.54662204  0.06789403  0.30077296    -0.63400
O369        O  0.37898324  0.05366673  0.25646218    -0.58200
O370        O  0.48609837  0.10693568  0.26931727    -0.94900
O371        O  0.42733164  0.09151762  0.25264156    -0.93300
O372        O  0.45217472  0.93967406  0.29451275    -0.93700
O373        O  0.51656366  0.95701469  0.30875023    -0.92400
C374        C  0.44996733  0.11328019  0.26697760     1.16600
H375        H  0.43155416  0.94737464  0.23316073     0.32600
H376        H  0.57403458  0.99004361  0.26121198     0.43400
H377        H  0.47563275  0.10054010  0.21223690     0.36900
H378        H  0.53399481  0.98989010  0.13788161     0.33400
H379        H  0.56611894  0.90933860  0.27621859     0.25200
H380        H  0.60563774  0.00527729  0.13727966     0.31200
H381        H  0.55827286  0.05425968  0.11009923     0.37100
H382        H  0.45067213  0.91154931  0.29629078     0.31500
H383        H  0.35731057  0.05744175  0.24262765     0.30400
H384        H  0.37893828  0.04068627  0.17619078     0.32100
H385        H  0.48101791  0.13400689  0.13698496     0.31000
H386        H  0.53238844  0.98028351  0.30942178     0.35000
H387        H  0.57006496  0.05248142  0.30377468     0.27800
H388        H  0.43234481  0.98884823  0.12211732     0.32000
H389        H  0.48496938  0.03886488  0.10381350     0.34900
H390        H  0.37195855  0.03121664  0.26893627     0.27500
H391        H  0.55510997  0.09469898  0.30234295     0.40300
H392        H  0.64660956  0.96059684  0.21509543     0.30400
H393        H  0.54266880  0.88015231  0.25749796     0.38000
H394        H  0.45350714  0.12464274  0.16425347     0.29900
H395        H  0.63619954  0.98063014  0.15375328     0.29900
H396        H  0.42234133  0.94539352  0.12383425     0.30200
Zr397      Zr  0.44492264  0.64841743  0.39584038     2.17500
O398        O  0.45250310  0.59504767  0.36079676    -0.52200
O399        O  0.50996094  0.62100082  0.40012276    -0.75400
O400        O  0.43752367  0.66734814  0.34255563    -0.82200
O401        O  0.39986323  0.59373888  0.45710463    -0.83900
O402        O  0.43424736  0.73218393  0.33951177    -0.79500
O403        O  0.40956442  0.59032264  0.40618795    -0.91200
O404        O  0.53557886  0.67759491  0.40334125    -0.77100
O405        O  0.48238473  0.70526574  0.39685402    -0.86600
O406        O  0.47075552  0.65028621  0.44611456    -0.86300
O407        O  0.40079695  0.70158200  0.38902781    -0.73100
O408        O  0.39260882  0.65234449  0.43188922    -0.85200
Zr409      Zr  0.41386638  0.76346491  0.47571907     2.26400
Zr410      Zr  0.43937210  0.75803256  0.39046593     2.06300
Zr411      Zr  0.41800412  0.65439150  0.48135387     2.10000
Zr412      Zr  0.50763972  0.70761982  0.44656315     1.78800
O413        O  0.35860307  0.63969238  0.50825346    -0.94000
O414        O  0.55723105  0.75107840  0.42812665    -0.41800
O415        O  0.45641146  0.71069225  0.48273330    -0.78400
O416        O  0.46695825  0.76113698  0.44015281    -0.97100
O417        O  0.38727845  0.76061808  0.42623449    -0.90400
O418        O  0.37503253  0.70761692  0.47500672    -0.93300
C419        C  0.53918872  0.64179697  0.40425812     1.00500
C420        C  0.39714689  0.57656651  0.43130876     1.13400
C421        C  0.43341107  0.69872639  0.32764343     1.04200
O422        O  0.49964207  0.77496894  0.36584245    -0.95400
O423        O  0.44680154  0.82479819  0.40550215    -0.91200
O424        O  0.43698630  0.82531146  0.45668368    -0.84300
C425        C  0.44635496  0.84147788  0.43137328     1.10800
O426        O  0.32058700  0.65679465  0.39310161    -0.97400
Zr427      Zr  0.34964469  0.70446544  0.42529160     1.88900
O428        O  0.34961388  0.79277416  0.47270932    -0.74000
O429        O  0.40101084  0.79942569  0.35823297    -0.53300
O430        O  0.30871993  0.72536731  0.38430904    -0.98000
O431        O  0.30598516  0.66959488  0.45863111    -0.55200
O432        O  0.31249358  0.76015319  0.44010300    -0.74600
C433        C  0.31872641  0.78836554  0.45762326     0.97800
O434        O  0.41698657  0.80611761  0.51915279    -0.63400
O435        O  0.44684274  0.60394020  0.51182021    -0.58200
O436        O  0.42674736  0.74374761  0.52964782    -0.94900
O437        O  0.43283001  0.67908562  0.53206817    -0.93300
O438        O  0.53674593  0.66021414  0.47910005    -0.93700
O439        O  0.55316138  0.73501020  0.48124967    -0.92400
C440        C  0.43251061  0.70970077  0.04552614     1.16600
H441        H  0.48530377  0.62762031  0.45092864     0.32600
H442        H  0.48431699  0.78211685  0.44203276     0.43400
H443        H  0.35533898  0.70897551  0.49052346     0.36900
H444        H  0.38679999  0.69952130  0.37054009     0.33400
H445        H  0.55594163  0.74989719  0.40578185     0.25200
H446        H  0.38748109  0.81722146  0.37211760     0.31200
H447        H  0.32577709  0.73996529  0.37048779     0.37100
H448        H  0.52070635  0.66036499  0.49774994     0.31500
H449        H  0.44910901  0.58150161  0.49839103     0.30400
H450        H  0.36138128  0.61265144  0.51446710     0.32100
H451        H  0.30762434  0.64277132  0.45174584     0.31000
H452        H  0.53830599  0.73918135  0.50020646     0.35000
H453        H  0.43072831  0.82927329  0.51233956     0.27800
H454        H  0.47466856  0.60154151  0.34760037     0.32000
H455        H  0.34048846  0.63687087  0.39019172     0.34900
H456        H  0.47347867  0.61212022  0.51477923     0.27500
H457        H  0.39038309  0.81478742  0.52287705     0.40300
H458        H  0.49230987  0.79119168  0.34844450     0.30400
H459        H  0.54842594  0.77725184  0.43303095     0.38000
H460        H  0.28024308  0.67833513  0.45270143     0.29900
H461        H  0.41972147  0.81548599  0.34706760     0.29900
H462        H  0.43022094  0.59590917  0.34730339     0.30200
Zr463      Zr  0.44859170  0.65139161  0.14535748     2.17500
O464        O  0.46452545  0.60299509  0.10758717    -0.52200
O465        O  0.51299900  0.62260712  0.15380141    -0.75400
O466        O  0.44395241  0.67731590  0.09278153    -0.82200
O467        O  0.39681482  0.58952550  0.20199253    -0.83900
O468        O  0.43802198  0.74211076  0.09344966    -0.79500
O469        O  0.40896121  0.59338242  0.15126995    -0.91200
O470        O  0.54371503  0.67533166  0.16547457    -0.77100
O471        O  0.48321979  0.70976636  0.15297401    -0.86600
O472        O  0.47038457  0.64705050  0.19683556    -0.86300
O473        O  0.40289690  0.70357007  0.14021935    -0.73100
O474        O  0.39388923  0.65042021  0.17895755    -0.85200
Zr475      Zr  0.40970781  0.75536162  0.23067594     2.26400
Zr476      Zr  0.43784455  0.76172680  0.14737376     2.06300
Zr477      Zr  0.41569860  0.64597783  0.22952317     2.10000
Zr478      Zr  0.50565713  0.70404437  0.20399677     1.78800
O479        O  0.36023083  0.62039162  0.25644667    -0.94000
O480        O  0.56648529  0.73744254  0.19920094    -0.41800
O481        O  0.45181840  0.70217123  0.23714581    -0.78400
O482        O  0.46488983  0.75677013  0.19677712    -0.97100
O483        O  0.38402752  0.75889073  0.18093303    -0.90400
O484        O  0.37228869  0.69913069  0.22515352    -0.93300
C485        C  0.54304938  0.63949718  0.16311669     1.00500
C486        C  0.39439231  0.57672377  0.17482722     1.13400
C487        C  0.43934649  0.70992468  0.07925475     1.04200
O488        O  0.47784675  0.79709872  0.11158498    -0.95400
O489        O  0.44944761  0.82285168  0.17538535    -0.91200
O490        O  0.44077088  0.81691113  0.22641047    -0.84300
C491        C  0.45107093  0.83600057  0.20295698     1.10800
O492        O  0.31447077  0.65747005  0.14263574    -0.97400
Zr493      Zr  0.34935902  0.70132828  0.17450858     1.88900
O494        O  0.34470009  0.78259684  0.22777401    -0.74000
O495        O  0.38547620  0.80192761  0.12994604    -0.53300
O496        O  0.31576772  0.72652594  0.13081922    -0.98000
O497        O  0.30409866  0.66490925  0.20548391    -0.55200
O498        O  0.31002765  0.75345105  0.19166722    -0.74600
C499        C  0.31465010  0.77914066  0.21158581     0.97800
O500        O  0.40313513  0.80019426  0.27273246    -0.63400
O501        O  0.45700011  0.59713085  0.25147369    -0.58200
O502        O  0.42024513  0.72862136  0.28117364    -0.94900
O503        O  0.42430826  0.66401129  0.28210906    -0.93300
O504        O  0.53078952  0.65677113  0.23910244    -0.93700
O505        O  0.52794997  0.74597753  0.24374623    -0.92400
C506        C  0.42539490  0.69672656  0.29501776     1.16600
H507        H  0.48486680  0.62428646  0.20140590     0.32600
H508        H  0.48363451  0.77576303  0.20103835     0.43400
H509        H  0.35198060  0.69820199  0.24019395     0.36900
H510        H  0.39049065  0.70298117  0.12095081     0.33400
H511        H  0.58543895  0.72013553  0.20853259     0.25200
H512        H  0.39616951  0.82798907  0.12882497     0.31200
H513        H  0.33309519  0.74584765  0.12185660     0.37100
H514        H  0.53074576  0.66971212  0.25895481     0.31500
H515        H  0.44668482  0.59272789  0.27217403     0.30400
H516        H  0.37096875  0.60377791  0.27241793     0.32100
H517        H  0.31171180  0.63788448  0.20260574     0.31000
H518        H  0.50689467  0.74662025  0.25897629     0.35000
H519        H  0.38282961  0.78999872  0.28630933     0.27800
H520        H  0.48359820  0.61487026  0.09375668     0.32000
H521        H  0.32908857  0.63322536  0.14353011     0.34900
H522        H  0.45122031  0.57337890  0.24048337     0.27500
H523        H  0.42694393  0.79843783  0.28450271     0.40300
H524        H  0.46385175  0.82130314  0.10800241     0.30400
H525        H  0.57348469  0.73758665  0.17740606     0.38000
H526        H  0.27928522  0.66750502  0.19524872     0.29900
H527        H  0.38206030  0.79465983  0.10854898     0.29900
H528        H  0.44135849  0.60018362  0.09529792     0.30200
Zr529      Zr  0.15204091  0.94642927  0.02410943     2.17500
O530        O  0.10383704  0.95974360  0.06341260    -0.52200
O531        O  0.12684898  0.01294285  0.02127009    -0.75400
O532        O  0.16932953  0.93346568  0.07746581    -0.82200
O533        O  0.09049885  0.90873927  0.46067191    -0.83900
O534        O  0.23398192  0.92888046  0.07932937    -0.79500
O535        O  0.09146424  0.91629846  0.01480675    -0.91200
O536        O  0.16135360  0.04521286  0.98567510    -0.77100
O537        O  0.21015120  0.98148075  0.02108518    -0.86600
O538        O  0.15286852  0.97063378  0.47432287    -0.86300
O539        O  0.20130858  0.89800668  0.03010960    -0.73100
O540        O  0.15258546  0.89209301  0.48802135    -0.85200
Zr541      Zr  0.26176557  0.91147505  0.44169640     2.26400
Zr542      Zr  0.25904015  0.93410199  0.02768572     2.06300
Zr543      Zr  0.15400922  0.92003320  0.43851461     2.10000
Zr544      Zr  0.21067592  0.00591181  0.47165848     1.78800
O545        O  0.13102675  0.86552345  0.41033936    -0.94000
O546        O  0.24370369  0.05185933  0.00375427    -0.41800
O547        O  0.21104318  0.95646163  0.43486712    -0.78400
O548        O  0.26136360  0.96279785  0.47822355    -0.97100
O549        O  0.26002173  0.88387155  0.49132260    -0.90400
O550        O  0.20500753  0.87434213  0.44409338    -0.93300
C551        C  0.13358790  0.04235766  0.00441623     1.00500
C552        C  0.07411785  0.90639215  0.48705606     1.13400
C553        C  0.20064314  0.92788565  0.09191719     1.04200
O554        O  0.28483638  0.98905801  0.05362431    -0.95400
O555        O  0.32534334  0.93860873  0.01220423    -0.91200
O556        O  0.32363775  0.93151512  0.45909671    -0.84300
C557        C  0.34012970  0.94076590  0.48370518     1.10800
O558        O  0.14760677  0.81828693  0.01961457    -0.97400
Zr559      Zr  0.20383695  0.84700718  0.49385439     1.88900
O560        O  0.28988075  0.84677035  0.44198264    -0.74000
O561        O  0.29882667  0.88840242  0.05464023    -0.53300
O562        O  0.21713826  0.80451170  0.03518228    -0.98000
O563        O  0.18190462  0.79580919  0.46137409    -0.55200
O564        O  0.26290119  0.81349921  0.48093939    -0.74600
C565        C  0.28857348  0.81798155  0.46026196     0.97800
O566        O  0.30717859  0.92014114  0.39980219    -0.63400
O567        O  0.11119586  0.96540489  0.41412418    -0.58200
O568        O  0.24323072  0.92359843  0.38788169    -0.94900
O569        O  0.17866183  0.93001924  0.38653016    -0.93300
O570        O  0.18412143  0.04386556  0.43058292    -0.93700
O571        O  0.25746398  0.03997469  0.44062980    -0.92400
C572        C  0.21187508  0.93003550  0.37341533     1.16600
H573        H  0.13069007  0.98606721  0.47000461     0.32600
H574        H  0.28253854  0.98001965  0.47599112     0.43400
H575        H  0.20506724  0.85526794  0.42839317     0.36900
H576        H  0.19860573  0.88354109  0.04858870     0.33400
H577        H  0.23113418  0.05870147  0.51773426     0.25200
H578        H  0.30519967  0.90114986  0.07383340     0.31200
H579        H  0.21120035  0.77868700  0.02763109     0.37100
H580        H  0.15633801  0.04552975  0.43489504     0.31500
H581        H  0.12819396  0.98370449  0.40344580     0.30400
H582        H  0.12001607  0.84830725  0.42596830     0.32100
H583        H  0.15504421  0.80232504  0.45695082     0.31000
H584        H  0.26837980  0.02033579  0.42691088     0.35000
H585        H  0.31591663  0.94686885  0.40142397     0.27800
H586        H  0.08106634  0.96960966  0.05282157     0.32000
H587        H  0.14430756  0.83293155  0.03860007     0.34900
H588        H  0.09914388  0.95075211  0.39780160     0.27500
H589        H  0.32974961  0.90432694  0.40481822     0.40300
H590        H  0.28933554  0.00820173  0.03743501     0.30400
H591        H  0.22837125  0.07556508  0.00195472     0.38000
H592        H  0.18034800  0.77297167  0.47462904     0.29900
H593        H  0.28126370  0.86759511  0.06068015     0.29900
H594        H  0.11335220  0.98211695  0.07456177     0.30200
Zr595      Zr  0.15399313  0.94427371  0.27410813     2.17500
O596        O  0.10485574  0.95387806  0.31319418    -0.52200
O597        O  0.12860931  0.01135649  0.26914218    -0.75400
O598        O  0.18060628  0.94128530  0.32614321    -0.82200
O599        O  0.08920115  0.89131628  0.22147184    -0.83900
O600        O  0.24549019  0.93490572  0.32475484    -0.79500
O601        O  0.09263490  0.91095567  0.27036605    -0.91200
O602        O  0.16356387  0.04132673  0.23268756    -0.77100
O603        O  0.21146488  0.97867568  0.26398486    -0.86600
O604        O  0.14980649  0.96255101  0.22197054    -0.86300
O605        O  0.20663633  0.89950448  0.28017573    -0.73100
O606        O  0.15211879  0.88680853  0.24400185    -0.85200
Zr607      Zr  0.25674185  0.89888044  0.18810474     2.26400
Zr608      Zr  0.26434050  0.93479767  0.26992827     2.06300
Zr609      Zr  0.14762233  0.90559634  0.19216589     2.10000
Zr610      Zr  0.20713278  0.99702845  0.21213439     1.78800
O611        O  0.12817732  0.84680486  0.16779069    -0.94000
O612        O  0.24452151  0.04695016  0.23575298    -0.41800
O613        O  0.20386092  0.94141040  0.18197282    -0.78400
O614        O  0.25978374  0.95614110  0.21826391    -0.97100
O615        O  0.26105701  0.87873227  0.23953599    -0.90400
O616        O  0.20061186  0.86203984  0.19791380    -0.93300
C617        C  0.13645091  0.04053145  0.25206632     1.00500
C618        C  0.07545563  0.89430460  0.24866073     1.13400
C619        C  0.21308800  0.93664884  0.33941482     1.04200
O620        O  0.29252993  0.99143558  0.29181683    -0.95400
O621        O  0.32542560  0.94318222  0.24035364    -0.91200
O622        O  0.32061043  0.92521251  0.19096818    -0.84300
C623        C  0.33896003  0.93985026  0.21281479     1.16800
O624        O  0.16206260  0.81365553  0.28704999    -0.97400
Zr625      Zr  0.20467237  0.84349087  0.24988756     1.88900
O626        O  0.28571961  0.83583616  0.19512011    -0.74000
O627        O  0.30929882  0.89085753  0.29344692    -0.53300
O628        O  0.23284559  0.81501984  0.29474954    -0.98000
O629        O  0.17101368  0.79211812  0.22493706    -0.55200
O630        O  0.25970977  0.80500344  0.23562120    -0.74600
C631        C  0.28464255  0.80825759  0.21431868     0.97800
O632        O  0.29149820  0.88315116  0.14122389    -0.63400
O633        O  0.09379288  0.93691027  0.16780079    -0.58200
O634        O  0.23134682  0.91118810  0.13745459    -0.94900
O635        O  0.16671858  0.91749159  0.13897021    -0.93300
O636        O  0.17158807  0.02555307  0.17080664    -0.93700
O637        O  0.25031476  0.02463712  0.17432359    -0.92400
C638        C  0.19914895  0.91804556  0.12472243     1.16600
H639        H  0.12725941  0.97761590  0.21793888     0.32600
H640        H  0.27917368  0.97389258  0.21191989     0.43400
H641        H  0.19951201  0.84045969  0.18445441     0.36900
H642        H  0.20630924  0.88785240  0.29992504     0.33400
H643        H  0.23092307  0.05313461  0.25495917     0.25200
H644        H  0.32413477  0.87954968  0.27640504     0.31200
H645        H  0.25399669  0.83228429  0.29991849     0.37100
H646        H  0.16398654  0.00368198  0.15821198     0.31500
H647        H  0.10510911  0.95478654  0.15279140     0.30400
H648        H  0.11836065  0.83050324  0.18449210     0.32100
H649        H  0.14360923  0.79747509  0.22892430     0.31000
H650        H  0.25760914  0.00298492  0.16106740     0.35000
H651        H  0.30699621  0.90587057  0.13605066     0.27800
H652        H  0.11338621  0.97599037  0.32511452     0.32000
H653        H  0.13626410  0.82328041  0.28209590     0.34900
H654        H  0.08211865  0.91668086  0.15549757     0.27500
H655        H  0.31053053  0.86329176  0.14645893     0.40300
H656        H  0.32013166  0.98935291  0.28696478     0.30400
H657        H  0.26827835  0.03405366  0.24221337     0.38000
H658        H  0.17658760  0.76904730  0.23715705     0.29900
H659        H  0.32767245  0.90752601  0.30372001     0.29900
H660        H  0.10693329  0.93174967  0.32711545     0.30200
Zr661      Zr  0.94458720  0.86782889  0.01775878     2.17500
O662        O  0.95055231  0.92046064  0.05340795    -0.52200
O663        O  0.01286239  0.89011612  0.01134693    -0.75400
O664        O  0.93834942  0.84737311  0.07203474    -0.82200
O665        O  0.90541911  0.92987966  0.45521859    -0.83900
O666        O  0.93484687  0.78274791  0.07496913    -0.79500
O667        O  0.91519626  0.93011045  0.00801889    -0.91200
O668        O  0.03941568  0.86170834  0.96988420    -0.77100
O669        O  0.98154930  0.81077560  0.01268470    -0.86600
O670        O  0.96404006  0.86381124  0.46393065    -0.86300
O671        O  0.89932653  0.81665085  0.02701146    -0.73100
O672        O  0.88598296  0.86492141  0.48511686    -0.85200
Zr673      Zr  0.90587190  0.75355141  0.43914050     2.26400
Zr674      Zr  0.93753823  0.76012658  0.02302180     2.06300
Zr675      Zr  0.90838542  0.86390806  0.43384773     2.10000
Zr676      Zr  0.00005851  0.80541229  0.46052324     1.78800
O677        O  0.84574684  0.88251806  0.41546060    -0.94000
O678        O  0.04446057  0.77416589  0.49475890    -0.41800
O679        O  0.94628334  0.80689207  0.42886334    -0.78400
O680        O  0.95997000  0.75362596  0.47209562    -0.97100
O681        O  0.88202305  0.75552607  0.49004142    -0.90400
O682        O  0.86704193  0.81010831  0.44182537    -0.93300
C683        C  0.03980906  0.88598901  0.99097035     1.00500
C684        C  0.90767364  0.94674790  0.48124871     1.13400
C685        C  0.93419089  0.81588237  0.08720369     1.04200
O686        O  0.99780905  0.73988912  0.04488574    -0.95400
O687        O  0.94196445  0.69430829  0.00776375    -0.91200
O688        O  0.92472360  0.69026633  0.45919532    -0.84300
C689        C  0.93559183  0.67513254  0.48440995     1.10800
O690        O  0.81520668  0.86493376  0.02137070    -0.97400
Zr691      Zr  0.84344507  0.81098635  0.49250810     1.88900
O692        O  0.84060746  0.72988708  0.43832512    -0.74000
O693        O  0.89574318  0.72066576  0.05471931    -0.53300
O694        O  0.81559083  0.79183545  0.04131173    -0.98000
O695        O  0.78960807  0.82433536  0.45957914    -0.55200
O696        O  0.81484222  0.74763021  0.48335562    -0.74600
C697        C  0.81644342  0.72541765  0.46013963     0.97800
O698        O  0.91166306  0.70743435  0.39837543    -0.63400
O699        O  0.93599962  0.90882892  0.39744455    -0.58200
O700        O  0.91813798  0.77272745  0.38538406    -0.94900
O701        O  0.91897145  0.83770034  0.38278928    -0.93300
O702        O  0.04123454  0.82364872  0.41799797    -0.93700
O703        O  0.02920770  0.75693986  0.42790891    -0.92400
C704        C  0.92183492  0.80446416  0.37040881     1.16600
H705        H  0.97798504  0.88613609  0.45746935     0.32600
H706        H  0.97656246  0.73173659  0.46975476     0.43400
H707        H  0.84713157  0.80912510  0.42700631     0.36900
H708        H  0.88655733  0.81893141  0.04637490     0.33400
H709        H  0.05180462  0.74995392  0.48472368     0.25200
H710        H  0.91151811  0.71228155  0.07194514     0.31200
H711        H  0.78787392  0.79298354  0.03734660     0.37100
H712        H  0.02389330  0.82618500  0.40062595     0.31500
H713        H  0.91497719  0.92681768  0.39270936     0.30400
H714        H  0.84695120  0.87711331  0.39349611     0.32100
H715        H  0.78826781  0.85243274  0.45738375     0.31000
H716        H  0.00753340  0.74349680  0.41872755     0.35000
H717        H  0.93735228  0.69607611  0.40092391     0.27800
H718        H  0.97487308  0.91576169  0.06393913     0.32000
H719        H  0.83053302  0.86814597  0.03981592     0.34900
H720        H  0.95434586  0.92409805  0.40902577     0.27500
H721        H  0.89367714  0.68674567  0.40383334     0.40300
H722        H  0.00683078  0.76229432  0.05625332     0.30400
H723        H  0.07772249  0.78481817  0.97594015     0.38000
H724        H  0.76668750  0.81746088  0.47178669     0.29900
H725        H  0.87668609  0.73853814  0.06364150     0.29900
H726        H  0.93036064  0.91719606  0.06914618     0.30200
Zr727      Zr  0.94259412  0.86212487  0.27122142     2.17500
O728        O  0.95339876  0.90416060  0.31412163    -0.52200
O729        O  0.00889055  0.88788271  0.26463485    -0.75400
O730        O  0.93417208  0.83609624  0.32320399    -0.82200
O731        O  0.89713153  0.92686654  0.21612299    -0.83900
O732        O  0.92948028  0.77143324  0.32266578    -0.79500
O733        O  0.90781618  0.92232184  0.26672051    -0.91200
O734        O  0.04230333  0.83754140  0.24722400    -0.77100
O735        O  0.97557320  0.80317584  0.26356493    -0.86600
O736        O  0.96680618  0.86649698  0.22003095    -0.86300
O737        O  0.89414062  0.81314744  0.27564695    -0.73100
O738        O  0.88967188  0.86607462  0.23692965    -0.85200
Zr739      Zr  0.90337289  0.75948545  0.18512654     2.26400
Zr740      Zr  0.92773628  0.75411560  0.26842036     2.06300
Zr741      Zr  0.91404865  0.86954108  0.18654876     2.10000
Zr742      Zr  0.00046273  0.80818981  0.21268745     1.78800
O743        O  0.85912495  0.89591922  0.16040360    -0.94000
O744        O  0.05039329  0.76219490  0.22536866    -0.41800
O745        O  0.94792384  0.81099609  0.17929073    -0.78400
O746        O  0.95719502  0.75713552  0.21892755    -0.97100
O747        O  0.87582802  0.75855918  0.23471814    -0.90400
O748        O  0.86892800  0.81832628  0.19025469    -0.93300
C749        C  0.04026105  0.87229994  0.25492961     1.00500
C750        C  0.89496207  0.93991918  0.24349866     1.13400
C751        C  0.92954207  0.80363095  0.33675604     1.04200
O752        O  0.96631585  0.70722694  0.29376795    -0.95400
O753        O  0.93913039  0.69229775  0.24323456    -0.91200
O754        O  0.93288153  0.69629822  0.19212773    -0.84300
C755        C  0.94209756  0.67808308  0.21629329     1.10800
O756        O  0.80843132  0.87233360  0.26214482    -0.97400
Zr757      Zr  0.84259730  0.81773532  0.24054303     1.88900
O758        O  0.83660189  0.73509980  0.19031888    -0.74000
O759        O  0.87198909  0.72152996  0.28962258    -0.53300
O760        O  0.80903863  0.80352773  0.28798885    -0.98000
O761        O  0.79462482  0.84316633  0.20596935    -0.55200
O762        O  0.80545802  0.76195116  0.23046133    -0.74600
C763        C  0.80825901  0.73712175  0.20947982     0.97800
O764        O  0.89076830  0.71427863  0.14466649    -0.63400
O765        O  0.95524522  0.91680228  0.16216909    -0.58200
O766        O  0.91872215  0.78511813  0.13403994    -0.94900
O767        O  0.92485395  0.84975368  0.13383196    -0.93300
O768        O  0.03374828  0.85539786  0.18157867    -0.93700
O769        O  0.03009136  0.78063742  0.16741962    -0.92400
C770        C  0.92554356  0.81718966  0.12042378     1.16600
H771        H  0.98228050  0.88871080  0.21607634     0.32600
H772        H  0.97564336  0.73721245  0.21523503     0.43400
H773        H  0.85023432  0.82030045  0.17451750     0.36900
H774        H  0.88127985  0.81376295  0.29506424     0.33400
H775        H  0.04539452  0.73895575  0.21348867     0.25200
H776        H  0.88122829  0.69574475  0.29529731     0.31200
H777        H  0.78162877  0.80392212  0.28289791     0.37100
H778        H  0.01544122  0.86249988  0.16564956     0.31500
H779        H  0.94165380  0.92466402  0.14365995     0.30400
H780        H  0.86889050  0.91908588  0.15006208     0.32100
H781        H  0.77103384  0.84637992  0.21834014     0.31000
H782        H  0.00849938  0.77259276  0.15482902     0.35000
H783        H  0.87402944  0.72787398  0.13027897     0.27800
H784        H  0.95955756  0.92943112  0.30526718     0.32000
H785        H  0.81475261  0.89408630  0.24860488     0.34900
H786        H  0.95376554  0.93944793  0.17543083     0.27500
H787        H  0.91534769  0.71072225  0.13361539     0.40300
H788        H  0.94815334  0.69349414  0.30722730     0.30400
H789        H  0.07421273  0.77281565  0.21648670     0.38000
H790        H  0.78850191  0.82190011  0.19225510     0.29900
H791        H  0.86652718  0.73424972  0.30919029     0.29900
H792        H  0.97782777  0.89534773  0.32280036     0.30200
Zr793      Zr  0.75139622  0.61242321  0.49522247     2.17500
O794        O  0.76787883  0.65937932  0.53335154    -0.52200
O795        O  0.81496171  0.58283854  0.49568070    -0.75400
O796        O  0.74247273  0.58755955  0.04703220    -0.82200
O797        O  0.77846877  0.68267524  0.43186171    -0.83900
O798        O  0.69210424  0.54708393  0.04664543    -0.79500
O799        O  0.78269345  0.67328236  0.48282174    -0.91200
O800        O  0.81267911  0.53072509  0.46525122    -0.77100
O801        O  0.73750999  0.54646868  0.48826818    -0.86600
O802        O  0.77053925  0.59736106  0.44415897    -0.86300
O803        O  0.68345798  0.60800186  0.50246519    -0.73100
O804        O  0.71497173  0.65148820  0.46087838    -0.85200
Zr805      Zr  0.65163772  0.56381184  0.41013612     2.26400
Zr806      Zr  0.66986173  0.54182727  0.49526060     2.06300
Zr807      Zr  0.73447246  0.63601405  0.41007295     2.10000
Zr808      Zr  0.75550722  0.53218240  0.43707935     1.78800
O809        O  0.72002505  0.70007678  0.39171692    -0.94000
O810        O  0.75825339  0.46600581  0.45419062    -0.41800
O811        O  0.71984194  0.56999623  0.40195837    -0.78400
O812        O  0.68907156  0.52520601  0.44449122    -0.97100
O813        O  0.63203064  0.57990997  0.46104512    -0.90400
O814        O  0.66671985  0.62981452  0.41666191    -0.93300
C815        C  0.82975299  0.55319714  0.48294736     1.00500
C816        C  0.79038801  0.69200886  0.45829628     1.13400
C817        C  0.71834662  0.56510528  0.06073073     1.04200
O818        O  0.69142414  0.47824341  0.50985872    -0.95400
O819        O  0.62644600  0.49556748  0.47469772    -0.91200
O820        O  0.62215731  0.50154878  0.42346667    -0.84300
C821        C  0.61630084  0.48342139  0.44866404     1.10800
O822        O  0.64726244  0.69650809  0.50413566    -0.97400
Zr823      Zr  0.64750591  0.64529046  0.46706558     1.88900
O824        O  0.58915530  0.59490193  0.40570273    -0.74000
O825        O  0.61415100  0.53633024  0.52895932    -0.53300
O826        O  0.59826563  0.63421274  0.50560613    -0.98000
O827        O  0.64459166  0.71085205  0.44832436    -0.55200
O828        O  0.59203428  0.64762188  0.43508970    -0.74600
C829        C  0.57560031  0.62661575  0.41559590     0.97800
O830        O  0.62581678  0.51918813  0.37376595    -0.63400
O831        O  0.79217765  0.63098231  0.37862868    -0.58200
O832        O  0.66494273  0.58525213  0.35657947    -0.94900
O833        O  0.71494307  0.62638780  0.35713429    -0.93300
O834        O  0.81165145  0.53583218  0.40404248    -0.93700
O835        O  0.75213120  0.48700003  0.39558451    -0.92400
C836        C  0.68913860  0.60769080  0.34293521     1.16600
H837        H  0.79744537  0.60188655  0.44090695     0.32600
H838        H  0.68597080  0.49826737  0.44117575     0.43400
H839        H  0.65384125  0.64563567  0.40199919     0.36900
H840        H  0.67674353  0.61591172  0.52276565     0.33400
H841        H  0.78537068  0.45842358  0.45144251     0.25200
H842        H  0.61699268  0.52405979  0.03980632     0.31200
H843        H  0.61112025  0.62195430  0.52289787     0.37100
H844        H  0.80377084  0.55244122  0.38705875     0.31500
H845        H  0.79638107  0.65717666  0.37081173     0.30400
H846        H  0.70030656  0.69671382  0.37620076     0.32100
H847        H  0.62996265  0.70982225  0.42937532     0.31000
H848        H  0.72448073  0.48389145  0.39210355     0.35000
H849        H  0.60796310  0.53445751  0.36137959     0.27800
H850        H  0.79290375  0.64018750  0.04682500     0.32000
H851        H  0.66431550  0.68732035  0.52031369     0.34900
H852        H  0.81335188  0.62662550  0.39281178     0.27500
H853        H  0.64731595  0.51265595  0.35989543     0.40300
H854        H  0.70066726  0.48068570  0.53078829     0.30400
H855        H  0.75443996  0.46725558  0.47639063     0.38000
H856        H  0.67101834  0.71649140  0.44148269     0.29900
H857        H  0.62029311  0.56858528  0.03975420     0.29900
H858        H  0.75176217  0.65840797  0.04968908     0.30200
Zr859      Zr  0.65509951  0.56256795  0.16008638     2.17500
O860        O  0.60900907  0.54782411  0.12094350    -0.52200
O861        O  0.62950254  0.49746339  0.17197566    -0.75400
O862        O  0.68536034  0.55627331  0.10849382    -0.82200
O863        O  0.58814013  0.62732497  0.20158037    -0.83900
O864        O  0.74893463  0.56871239  0.11004505    -0.79500
O865        O  0.59422693  0.59565520  0.15684445    -0.91200
O866        O  0.65346858  0.47874845  0.21699624    -0.77100
O867        O  0.71108958  0.52948425  0.17573743    -0.86600
O868        O  0.64521473  0.55443143  0.21370174    -0.86300
O869        O  0.70618370  0.60743851  0.15047897    -0.73100
O870        O  0.65114476  0.62398303  0.18493260    -0.85200
Zr871      Zr  0.74960881  0.62344110  0.24353102     2.26400
Zr872      Zr  0.76255607  0.57338082  0.16532243     2.06300
Zr873      Zr  0.64067843  0.61527612  0.23805517     2.10000
Zr874      Zr  0.70172799  0.52202191  0.22945951     1.78800
O875        O  0.61428428  0.67670807  0.25358700    -0.94000
O876        O  0.73651648  0.46373143  0.21646242    -0.41800
O877        O  0.69667973  0.58237388  0.25340255    -0.78400
O878        O  0.75440608  0.56181558  0.21888000    -0.97100
O879        O  0.75803096  0.63377717  0.19028756    -0.90400
O880        O  0.69355530  0.65778378  0.22911155    -0.93300
C881        C  0.63140594  0.47431629  0.19486232     1.00500
C882        C  0.57653012  0.61850347  0.17474221     1.13400
C883        C  0.71807586  0.56217504  0.09515766     1.04200
O884        O  0.78929417  0.51058047  0.15432814    -0.95400
O885        O  0.82135763  0.57282073  0.19532452    -0.91200
O886        O  0.81403152  0.59662483  0.24308822    -0.84300
C887        C  0.83347690  0.57955027  0.22234238     1.10800
O888        O  0.65745553  0.69194015  0.13858498    -0.97400
Zr889      Zr  0.70237087  0.66754960  0.17567177     1.88900
O890        O  0.77037829  0.68955815  0.23350137    -0.74000
O891        O  0.81183719  0.60520242  0.13516304    -0.53300
O892        O  0.72918849  0.69013185  0.12765516    -0.98000
O893        O  0.67390149  0.72547844  0.19711948    -0.55200
O894        O  0.76129121  0.70164856  0.18396211    -0.74600
C895        C  0.77816573  0.70781314  0.20884021     0.97800
O896        O  0.78796501  0.64618058  0.28538450    -0.63400
O897        O  0.58762151  0.58493758  0.26495707    -0.58200
O898        O  0.72210356  0.61675840  0.29544126    -0.94900
O899        O  0.65762998  0.61030333  0.29339322    -0.93300
O900        O  0.66885399  0.50528049  0.27665089    -0.93700
O901        O  0.74401547  0.49776068  0.26840426    -0.92400
C902        C  0.68918049  0.61191358  0.30853839     1.16600
H903        H  0.62181458  0.54120508  0.21855388     0.32600
H904        H  0.77388039  0.54538226  0.22695297     0.43400
H905        H  0.69097138  0.68120791  0.24039055     0.36900
H906        H  0.70654065  0.61600988  0.12976347     0.33400
H907        H  0.72106385  0.45104812  0.20094380     0.25200
H908        H  0.81868828  0.62792237  0.14709185     0.31200
H909        H  0.75508319  0.67864540  0.12644900     0.37100
H910        H  0.66927404  0.47701714  0.27735876     0.31500
H911        H  0.57561078  0.60569324  0.27696753     0.30400
H912        H  0.62944693  0.68423978  0.27124292     0.32100
H913        H  0.66257680  0.73974054  0.18005665     0.31000
H914        H  0.75206885  0.52073040  0.27950581     0.35000
H915        H  0.81122708  0.65734003  0.27597519     0.27800
H916        H  0.61668855  0.52249320  0.11301399     0.32000
H917        H  0.64287370  0.66930866  0.13228026     0.34900
H918        H  0.56883050  0.57915404  0.24917522     0.27500
H919        H  0.77387385  0.66850192  0.29366495     0.40300
H920        H  0.79739337  0.51189860  0.13278813     0.30400
H921        H  0.75961405  0.47252369  0.20535440     0.38000
H922        H  0.69590462  0.74118035  0.20306637     0.29900
H923        H  0.83447175  0.58821083  0.13629052     0.29900
H924        H  0.61402441  0.56581907  0.10399487     0.30200
Zr925      Zr  0.06213110  0.15053617  0.03813435     2.17500
O926        O  0.06156562  0.10338696  0.07911682    -0.52200
O927        O  0.99621537  0.12310710  0.03768356    -0.75400
O928        O  0.06945761  0.17756194  0.08965063    -0.82200
O929        O  0.10615991  0.08983977  0.48043892    -0.83900
O930        O  0.07409977  0.24237837  0.08856274    -0.79500
O931        O  0.09723639  0.09148746  0.02825313    -0.91200
O932        O  0.97097372  0.17966088  0.03048065    -0.77100
O933        O  0.02423218  0.20707098  0.03327153    -0.86600
O934        O  0.03568589  0.14620154  0.48773624    -0.86300
O935        O  0.10611443  0.20380923  0.04017908    -0.73100
O936        O  0.11396906  0.15111927  0.00106490    -0.85200
Zr937      Zr  0.09151350  0.25680185  0.45032395     2.26400
Zr938      Zr  0.06714120  0.26016616  0.03467352     2.06300
Zr939      Zr  0.08800154  0.14744911  0.45217960     2.10000
Zr940      Zr  0.99773483  0.20224277  0.48178527     1.78800
O941        O  0.14430278  0.12424927  0.42470284    -0.94000
O942        O  0.94875655  0.25222809  0.99325278    -0.41800
O943        O  0.04968100  0.20327188  0.44619201    -0.78400
O944        O  0.03766875  0.25653257  0.48555885    -0.97100
O945        O  0.11959519  0.25947302  0.99918319    -0.90400
O946        O  0.13060563  0.20107175  0.45487630    -0.93300
C947        C  0.96661769  0.14395467  0.03308025     1.00500
C948        C  0.10812925  0.07534869  0.00357457     1.13400
C949        C  0.07429017  0.21004885  0.10279790     1.04200
O950        O  0.00288677  0.27267884  0.05277314    -0.95400
O951        O  0.05831235  0.32386609  0.01079098    -0.91200
O952        O  0.06181308  0.31810356  0.46007478    -0.84300
C953        C  0.05619918  0.33786909  0.98362484     1.10800
O954        O  0.19425178  0.15683042  0.03275409    -0.97400
Zr955      Zr  0.15737587  0.20319729  0.00383506     1.88900
O956        O  0.15604734  0.28627355  0.44996812    -0.74000
O957        O  0.09994437  0.30805247  0.06420947    -0.53300
O958        O  0.19067100  0.22621570  0.04818287    -0.98000
O959        O  0.20908748  0.17603374  0.47569521    -0.55200
O960        O  0.19004722  0.26114886  0.48857302    -0.74600
C961        C  0.18525846  0.28575834  0.46747388     0.97800
O962        O  0.09308534  0.30409563  0.40939230    -0.63400
O963        O  0.04908830  0.09790692  0.42951195    -0.58200
O964        O  0.07844237  0.23195755  0.39927757    -0.94900
O965        O  0.07607835  0.16726939  0.39941174    -0.93300
O966        O  0.96893874  0.14835003  0.45660975    -0.93700
O967        O  0.96451736  0.22820444  0.43814984    -0.92400
C968        C  0.07377528  0.19980964  0.38578659     1.16600
H969        H  0.02185095  0.12272513  0.48528272     0.32600
H970        H  0.01910264  0.27649786  0.48243378     0.43400
H971        H  0.15002666  0.20051114  0.43912121     0.36900
H972        H  0.11988420  0.20374289  0.05884699     0.33400
H973        H  0.93401284  0.24281307  0.01104378     0.25200
H974        H  0.11669811  0.32157124  0.04946516     0.31200
H975        H  0.19451040  0.25385588  0.04470047     0.37100
H976        H  0.97886159  0.14976359  0.43552366     0.31500
H977        H  0.04926039  0.10286900  0.40744245     0.30400
H978        H  0.14624995  0.14039879  0.40629882     0.32100
H979        H  0.21219329  0.19208055  0.45733312     0.31000
H980        H  0.98476032  0.24054446  0.42570155     0.35000
H981        H  0.11199869  0.29477621  0.39420321     0.27800
H982        H  0.04131198  0.11163679  0.09361411     0.32000
H983        H  0.18229942  0.13191662  0.02863183     0.34900
H984        H  0.06418770  0.07411631  0.43171377     0.27500
H985        H  0.06805726  0.30287712  0.39933000     0.40300
H986        H  0.00004829  0.25721987  0.07149056     0.30400
H987        H  0.96186475  0.27509420  0.00082190     0.38000
H988        H  0.19921232  0.15143612  0.46831154     0.29900
H989        H  0.07998566  0.32695963  0.06984350     0.29900
H990        H  0.08583783  0.10664452  0.08997006     0.30200
Zr991      Zr  0.06041632  0.14899526  0.28365842     2.17500
O992        O  0.05090783  0.10364055  0.32522227    -0.52200
O993        O  0.99438588  0.12262058  0.27356684    -0.75400
O994        O  0.06360624  0.16929174  0.33766296    -0.82200
O995        O  0.11519039  0.09385603  0.22578674    -0.83900
O996        O  0.06572892  0.23413078  0.33958230    -0.79500
O997        O  0.09571824  0.08883995  0.27492499    -0.91200
O998        O  0.96104799  0.17431533  0.25980577    -0.77100
O999        O  0.02262760  0.20557410  0.27792685    -0.86600
O1000       O  0.04172759  0.14881617  0.23158345    -0.86300
O1001       O  0.10402789  0.20185131  0.29194604    -0.73100
O1002       O  0.11756389  0.15327320  0.25180544    -0.85200
Zr1003     Zr  0.09794170  0.26207566  0.20346351     2.26400
Zr1004     Zr  0.06478890  0.25796942  0.28720393     2.06300
Zr1005     Zr  0.09812635  0.15309452  0.20032157     2.10000
Zr1006     Zr  0.00387159  0.20508860  0.22596573     1.78800
O1007       O  0.15931322  0.13742439  0.17629531    -0.94000
O1008       O  0.95119274  0.24967026  0.23434515    -0.41800
O1009       O  0.05907783  0.20800031  0.19453630    -0.78400
O1010       O  0.04169513  0.25895686  0.23611628    -0.97100
O1011       O  0.11986050  0.26187149  0.25440157    -0.90400
O1012       O  0.13831115  0.20729659  0.20774482    -0.93300
C1013       C  0.96308107  0.13876054  0.26448656     1.00500
C1014       C  0.11329573  0.07597858  0.25131533     1.13400
C1015       C  0.06643308  0.20098922  0.35238740     1.04200
O1016       O  0.00731904  0.28217851  0.31244190    -0.95400
O1017       O  0.05485718  0.32296657  0.26870052    -0.91200
O1018       O  0.06979685  0.32290633  0.21831589    -0.84300
C1019       C  0.05707736  0.33908510  0.24253579     1.10800
O1020       O  0.19526535  0.15725491  0.28505929    -0.97400
Zr1021     Zr  0.15898353  0.20664946  0.25895876     1.88900
O1022       O  0.16214783  0.28983353  0.20564339    -0.74000
O1023       O  0.10482327  0.30219404  0.31467386    -0.53300
O1024       O  0.18753152  0.22925038  0.30539929    -0.98000
O1025       O  0.21424374  0.18141285  0.23082054    -0.55200
O1026       O  0.19229992  0.26554981  0.24657311    -0.74600
C1027       C  0.18928258  0.28977568  0.22492854     0.97800
O1028       O  0.10343239  0.30772666  0.16160212    -0.63400
O1029       O  0.06880471  0.10340517  0.17019607    -0.58200
O1030       O  0.08529683  0.24115142  0.15062331    -0.94900
O1031       O  0.08657160  0.17625956  0.14871791    -0.93300
O1032       O  0.97439257  0.15815896  0.19368871    -0.93700
O1033       O  0.97941131  0.23286188  0.17957329    -0.92400
C1034       C  0.08256533  0.20929264  0.13606682     1.16600
H1035       H  0.02817989  0.12598779  0.22632324     0.32600
H1036       H  0.02323445  0.27898230  0.23301080     0.43400
H1037       H  0.15880391  0.20867717  0.19292890     0.36900
H1038       H  0.11595613  0.19998633  0.31138073     0.33400
H1039       H  0.92779975  0.23400698  0.23383174     0.25200
H1040       H  0.08657229  0.31903188  0.32568082     0.31200
H1041       H  0.17525574  0.25432016  0.30920480     0.37100
H1042       H  0.99396723  0.15236391  0.17793771     0.31500
H1043       H  0.08381647  0.07992973  0.17414864     0.30400
H1044       H  0.17593601  0.12978232  0.19322201     0.32100
H1045       H  0.23659955  0.18919047  0.24268871     0.31000
H1046       H  0.99831233  0.22614030  0.16352684     0.35000
H1047       H  0.10843566  0.33282109  0.17086277     0.27800
H1048       H  0.07677692  0.09541918  0.33137947     0.32000
H1049       H  0.17935624  0.15050160  0.30299195     0.34900
H1050       H  0.04357404  0.09853648  0.17977809     0.27500
H1051       H  0.12777937  0.30119236  0.15108283     0.40300
H1052       H  0.99240511  0.29450154  0.29620971     0.30400
H1053       H  0.95332560  0.25748501  0.25573380     0.38000
H1054       H  0.21654944  0.19685129  0.21209442     0.29900
H1055       H  0.11696514  0.28678243  0.33072987     0.29900
H1056       H  0.03967182  0.08075944  0.31592616     0.30200
Zr1057     Zr  0.35191920  0.44762758  0.40639616     2.17500
O1058       O  0.39499695  0.46149534  0.36373205    -0.52200
O1059       O  0.37768124  0.51432292  0.41217056    -0.75400
O1060       O  0.32659548  0.44381077  0.35391727    -0.82200
O1061       O  0.41420831  0.39162176  0.45984486    -0.83900
O1062       O  0.26158752  0.44285619  0.35482957    -0.79500
O1063       O  0.41336136  0.41367678  0.41128881    -0.91200
O1064       O  0.34893492  0.54210188  0.45283727    -0.77100
O1065       O  0.29567134  0.48451991  0.41631556    -0.86600
O1066       O  0.35619696  0.46540413  0.45838996    -0.86300
O1067       O  0.29885037  0.40412846  0.40021015    -0.73100
O1068       O  0.35161763  0.38980235  0.43724767    -0.85200
Zr1069     Zr  0.24685481  0.40426867  0.49141671     2.26400
Zr1070     Zr  0.24265001  0.44210097  0.40914049     2.06300
Zr1071     Zr  0.35631330  0.40892635  0.48893775     2.10000
Zr1072     Zr  0.29957041  0.50140800  0.46864029     1.78800
O1073       O  0.38079214  0.35434283  0.51703182    -0.94000
O1074       O  0.26430800  0.55537143  0.44763144    -0.41800
O1075       O  0.30006671  0.44496247  0.49794556    -0.78400
O1076       O  0.24645595  0.46211842  0.46100840    -0.97100
O1077       O  0.24249853  0.38553619  0.43980966    -0.90400
O1078       O  0.30308374  0.36636993  0.48297483    -0.93300
C1079       C  0.37353316  0.54186595  0.43152716     1.00500
C1080       C  0.42933822  0.39562117  0.43316737     1.13400
C1081       C  0.29402589  0.44166927  0.34047363     1.04200
O1082       O  0.21463612  0.50053253  0.38870292    -0.95400
O1083       O  0.18073941  0.45058287  0.43578150    -0.91200
O1084       O  0.18514116  0.43397602  0.48562379    -0.84300
C1085       C  0.16735910  0.44835544  0.46318865     1.10800
O1086       O  0.34933831  0.31647208  0.40258057    -0.97400
Zr1087     Zr  0.29805298  0.34782391  0.43118431     1.88900
O1088       O  0.21693591  0.34095950  0.48553464    -0.74000
O1089       O  0.20173950  0.39941193  0.38100852    -0.53300
O1090       O  0.27906869  0.31892988  0.38371457    -0.98000
O1091       O  0.31476511  0.28963222  0.45866233    -0.55200
O1092       O  0.23759191  0.31515909  0.44128664    -0.74600
C1093       C  0.21486322  0.31591923  0.46434887     0.97800
O1094       O  0.20960884  0.38792395  0.03523206    -0.63400
O1095       O  0.40722181  0.43734698  0.01706728    -0.58200
O1096       O  0.26758502  0.41770016  0.04149973    -0.94900
O1097       O  0.33235635  0.42183397  0.04186353    -0.93300
O1098       O  0.33020866  0.52141631  0.51498679    -0.93700
O1099       O  0.25802326  0.53413688  0.50493667    -0.92400
C1100       C  0.29926281  0.42369809  0.05522464     1.16600
H1101       H  0.37943867  0.47893605  0.46240851     0.32600
H1102       H  0.22726957  0.48070728  0.46657022     0.43400
H1103       H  0.30404453  0.34494545  0.49678640     0.36900
H1104       H  0.29917250  0.39265130  0.38049774     0.33400
H1105       H  0.28388446  0.57386952  0.44078590     0.25200
H1106       H  0.17944207  0.39463435  0.39450531     0.31200
H1107       H  0.26142787  0.33754816  0.37432955     0.37100
H1108       H  0.35794408  0.52048760  0.51034870     0.31500
H1109       H  0.42559631  0.44608228  0.00128740     0.30400
H1110       H  0.37093283  0.35372810  0.03672790     0.32100
H1111       H  0.34289836  0.28735849  0.45717358     0.31000
H1112       H  0.24768675  0.51352857  0.51805066     0.35000
H1113       H  0.18248536  0.39012497  0.02952303     0.27800
H1114       H  0.41963510  0.46837992  0.37282551     0.32000
H1115       H  0.37299358  0.32249404  0.41349630     0.34900
H1116       H  0.42480782  0.42997091  0.51880525     0.27500
H1117       H  0.20983790  0.36255900  0.54006117     0.40300
H1118       H  0.19135048  0.50585270  0.40100836     0.30400
H1119       H  0.25317253  0.54579379  0.42872210     0.38000
H1120       H  0.30516586  0.26867854  0.44595017     0.29900
H1121       H  0.19150975  0.41518621  0.36431233     0.29900
H1122       H  0.38561005  0.48586442  0.35502640     0.30200
Zr1123     Zr  0.34901387  0.44875089  0.15531973     2.17500
O1124       O  0.39967705  0.45146514  0.11662218    -0.52200
O1125       O  0.37507795  0.51486533  0.15598382    -0.75400
O1126       O  0.32841602  0.43938935  0.10235810    -0.82200
O1127       O  0.41068716  0.41159232  0.21606639    -0.83900
O1128       O  0.26405235  0.43255521  0.10143111    -0.79500
O1129       O  0.41046109  0.41873841  0.16488317    -0.91200
O1130       O  0.33980459  0.54739467  0.19094048    -0.77100
O1131       O  0.29007292  0.48340472  0.15908074    -0.86600
O1132       O  0.34776088  0.47461992  0.20561025    -0.86300
O1133       O  0.29978973  0.40087130  0.15022741    -0.73100
O1134       O  0.35022533  0.39651873  0.19149461    -0.85200
Zr1135     Zr  0.24127345  0.41303848  0.24027300     2.26400
Zr1136     Zr  0.24093903  0.43619367  0.15414917     2.06300
Zr1137     Zr  0.34930770  0.42331584  0.24106484     2.10000
Zr1138     Zr  0.28888572  0.50894906  0.20926762     1.78800
O1139       O  0.37516157  0.36864718  0.26835184    -0.94000
O1140       O  0.25974753  0.55961206  0.17929520    -0.41800
O1141       O  0.29107993  0.45883115  0.24605453    -0.78400
O1142       O  0.23867882  0.46486634  0.20355824    -0.97100
O1143       O  0.24273668  0.38574110  0.19076849    -0.90400
O1144       O  0.29947075  0.37693075  0.23683154    -0.93300
C1145       C  0.36799878  0.54445300  0.17249063     1.00500
C1146       C  0.42637332  0.40878720  0.18958347     1.13400
C1147       C  0.29712315  0.43311736  0.08825778     1.04200
O1148       O  0.21050905  0.49141796  0.13090870    -0.95400
O1149       O  0.17488693  0.43630251  0.17299057    -0.91200
O1150       O  0.17763305  0.43311028  0.22452555    -0.84300
C1151       C  0.15970264  0.43849765  0.19960820     1.10800
O1152       O  0.35287482  0.31699002  0.16130344    -0.97400
Zr1153     Zr  0.30051653  0.35053930  0.18698198     1.88900
O1154       O  0.21975694  0.34607496  0.24210692    -0.74000
O1155       O  0.20129510  0.39235485  0.12595542    -0.53300
O1156       O  0.28325173  0.31479190  0.14213344    -0.98000
O1157       O  0.32409938  0.29883727  0.21899951    -0.55200
O1158       O  0.24122936  0.31799450  0.19894455    -0.74600
C1159       C  0.21868643  0.31961453  0.22198560     0.97800
O1160       O  0.19091806  0.41397284  0.27922083    -0.63400
O1161       O  0.39674776  0.46374121  0.26488402    -0.58200
O1162       O  0.26286957  0.42814972  0.29287279    -0.94900
O1163       O  0.32738323  0.43364857  0.29329601    -0.93300
O1164       O  0.31108418  0.54224899  0.25385580    -0.93700
O1165       O  0.23838486  0.54299416  0.23676599    -0.92400
C1166       C  0.29456210  0.43440928  0.30676686     1.16600
H1167       H  0.37000670  0.48956156  0.20997967     0.32600
H1168       H  0.21659252  0.48124329  0.20568315     0.43400
H1169       H  0.30066323  0.35763987  0.25249296     0.36900
H1170       H  0.30228692  0.38708700  0.13150305     0.33400
H1171       H  0.26720600  0.58357450  0.18932790     0.25200
H1172       H  0.18705000  0.40884145  0.11171556     0.31200
H1173       H  0.25579392  0.32032850  0.13930242     0.37100
H1174       H  0.32895411  0.52416016  0.26360805     0.31500
H1175       H  0.38499421  0.47332572  0.28391390     0.30400
H1176       H  0.40236125  0.37487531  0.27131578     0.32100
H1177       H  0.35228588  0.30081324  0.21827334     0.31000
H1178       H  0.23077605  0.52550021  0.25343983     0.35000
H1179       H  0.19840384  0.39481583  0.29461681     0.27800
H1180       H  0.39213154  0.47156395  0.10201193     0.32000
H1181       H  0.35959772  0.33336419  0.14370229     0.34900
H1182       H  0.41707450  0.44597900  0.27156733     0.27500
H1183       H  0.19251974  0.43899307  0.28943916     0.40300
H1184       H  0.23136430  0.50471657  0.11986820     0.30400
H1185       H  0.27423507  0.55983540  0.15986616     0.38000
H1186       H  0.31845554  0.27522142  0.20773483     0.29900
H1187       H  0.21905552  0.37737886  0.11294821     0.29900
H1188       H  0.39865629  0.42720638  0.10524797     0.30200
Zr1189     Zr  0.04587780  0.46463076  0.51134771     2.17500
O1190       O  0.08281550  0.47837096  0.05300102    -0.52200
O1191       O  0.05379279  0.40010236  0.00096137    -0.75400
O1192       O  0.01008657  0.41869303  0.03212391    -0.82200
O1193       O  0.11890868  0.49072802  0.45025002    -0.83900
O1194       O  0.94975315  0.42285561  0.01548976    -0.79500
O1195       O  0.11206995  0.45670409  0.49391512    -0.91200
O1196       O  0.02432523  0.38685806  0.45781842    -0.77100
O1197       O  0.99425259  0.48387534  0.48183061    -0.86600
O1198       O  0.05039388  0.46228706  0.45770124    -0.86300
O1199       O  0.99945447  0.50489404  0.03160939    -0.73100
O1200       O  0.05996133  0.52933869  0.50054754    -0.85200
Zr1201     Zr  0.95631638  0.55122605  0.44675132     2.26400
Zr1202     Zr  0.93983137  0.49007007  0.00827255     2.06300
Zr1203     Zr  0.06174729  0.52822324  0.44578064     2.10000
Zr1204     Zr  0.99070774  0.44429118  0.43933852     1.78800
O1205       O  0.11863375  0.56676061  0.45216048    -0.94000
O1206       O  0.94764161  0.39637056  0.45940674    -0.41800
O1207       O  0.00277765  0.50884693  0.42368086    -0.78400
O1208       O  0.93979077  0.48532277  0.45740058    -0.97100
O1209       O  0.94826031  0.55040910  0.50059489    -0.90400
O1210       O  0.01508215  0.56955628  0.46829424    -0.93300
C1211       C  0.04251259  0.37627278  0.48158332     1.00500
C1212       C  0.13063981  0.46644188  0.46972576     1.13400
C1213       C  0.97652789  0.40511839  0.02879148     1.04200
O1214       O  0.88385808  0.44927653  0.00620933    -0.95400
O1215       O  0.88317091  0.52801571  0.50794843    -0.91200
O1216       O  0.88951650  0.55269100  0.46048773    -0.84300
C1217       C  0.87020935  0.54545199  0.48469875     1.10800
O1218       O  0.05559393  0.57571696  0.05895732    -0.97400
Zr1219     Zr  0.00767084  0.56784301  0.52125263     1.88900
O1220       O  0.94086306  0.61550651  0.46078006    -0.74000
O1221       O  0.92684419  0.49519538  0.06240714    -0.53300
O1222       O  0.97603945  0.57387989  0.06398205    -0.98000
O1223       O  0.04740541  0.62481758  0.52233249    -0.55200
O1224       O  0.96777681  0.62298419  0.50690224    -0.74600
C1225       C  0.94816722  0.63508859  0.48426860     0.97800
O1226       O  0.92208179  0.54991870  0.39923309    -0.63400
O1227       O  0.07865422  0.51012050  0.39402969    -0.58200
O1228       O  0.98862540  0.59853696  0.41508229    -0.94900
O1229       O  0.05231282  0.58548851  0.41625201    -0.93300
O1230       O  0.02473101  0.43258916  0.39171814    -0.93700
O1231       O  0.95374455  0.43486344  0.39382530    -0.92400
C1232       C  0.02369220  0.60625122  0.40868902     1.16600
H1233       H  0.06864261  0.44433743  0.44935950     0.32600
H1234       H  0.91546223  0.47865518  0.44898097     0.43400
H1235       H  0.02098915  0.59599025  0.46464992     0.36900
H1236       H  0.99922632  0.50118258  0.05328168     0.33400
H1237       H  0.95156361  0.37400817  0.44608881     0.25200
H1238       H  0.91337996  0.51993963  0.06477849     0.31200
H1239       H  0.94963664  0.57983446  0.05777587     0.37100
H1240       H  0.04066793  0.40971374  0.39570368     0.31500
H1241       H  0.05930876  0.52252871  0.38112195     0.30400
H1242       H  0.10892943  0.59286591  0.45619413     0.32100
H1243       H  0.03529902  0.64384228  0.50885088     0.31000
H1244       H  0.93881650  0.45874309  0.39150217     0.35000
H1245       H  0.90893296  0.57497588  0.39814144     0.27800
H1246       H  0.10003482  0.45600143  0.05485800     0.32000
H1247       H  0.07270897  0.55322126  0.05732317     0.34900
H1248       H  0.10260733  0.52395930  0.38940395     0.27500
H1249       H  0.94219440  0.55105890  0.38325245     0.40300
H1250       H  0.86343479  0.46510181  0.99721599     0.30400
H1251       H  0.92190152  0.40600036  0.45432550     0.38000
H1252       H  0.07114527  0.61736066  0.51136243     0.29900
H1253       H  0.90685220  0.47590309  0.06650262     0.29900
H1254       H  0.06360648  0.47486779  0.06945710     0.30200
Zr1255     Zr  0.96371815  0.56033716  0.25593383     2.17500
O1256       O  0.93958610  0.55821467  0.30778038    -0.52200
O1257       O  0.96633728  0.62462157  0.23993179    -0.75400
O1258       O  0.01196707  0.60815867  0.26980117    -0.82200
O1259       O  0.87476615  0.52968486  0.21511654    -0.83900
O1260       O  0.07061807  0.58902691  0.25311867    -0.79500
O1261       O  0.89448281  0.57502380  0.24786585    -0.91200
O1262       O  0.96621421  0.62257530  0.18878648    -0.77100
O1263       O  0.00336495  0.52925897  0.22044435    -0.86600
O1264       O  0.94431700  0.55183504  0.20499753    -0.86300
O1265       O  0.01606601  0.52193302  0.27416625    -0.73100
O1266       O  0.94287037  0.49603734  0.25916683    -0.85200
Zr1267     Zr  0.02472548  0.45079076  0.18858374     2.26400
Zr1268     Zr  0.06673886  0.52462394  0.23687570     2.06300
Zr1269     Zr  0.92586630  0.48597507  0.20731042     2.10000
Zr1270     Zr  0.99855843  0.56108314  0.17402788     1.78800
O1271       O  0.87626876  0.45557767  0.23798121    -0.94000
O1272       O  0.04518617  0.61050505  0.18396608    -0.41800
O1273       O  0.97727331  0.49586832  0.17149921    -0.78400
O1274       O  0.04899633  0.51576589  0.18563592    -0.97100
O1275       O  0.04827008  0.46066374  0.23836807    -0.90400
O1276       O  0.97381181  0.44308431  0.22438450    -0.93300
C1277       C  0.95918061  0.63940312  0.21433708     1.00500
C1278       C  0.86960561  0.56048223  0.22987987     1.13400
C1279       C  0.04827873  0.61285670  0.26598112     1.04200
O1280       O  0.10965853  0.57051348  0.21304486    -0.95400
O1281       O  0.11631840  0.48011277  0.22209148    -0.91200
O1282       O  0.09404231  0.44116782  0.18552021    -0.84300
C1283       C  0.12071412  0.45364440  0.20246329     1.10800
O1284       O  0.97466108  0.46077553  0.32606405    -0.97400
Zr1285     Zr  0.99646772  0.45589107  0.27360335     1.88900
O1286       O  0.04189061  0.39128985  0.21206465    -0.74000
O1287       O  0.10436577  0.50560618  0.28030705    -0.53300
O1288       O  0.04670525  0.45661383  0.31101869    -0.98000
O1289       O  0.95264537  0.40665091  0.29171645    -0.55200
O1290       O  0.02801543  0.39491490  0.26254961    -0.74600
C1291       C  0.04156397  0.37768503  0.23903475     0.97800
O1292       O  0.03741071  0.43496454  0.13577988    -0.63400
O1293       O  0.89210302  0.48206404  0.15961447    -0.58200
O1294       O  0.97644358  0.40619667  0.16998964    -0.94900
O1295       O  0.91647969  0.42699994  0.18235994    -0.93300
O1296       O  0.95939024  0.56197478  0.12907431    -0.93700
O1297       O  0.03039007  0.56291093  0.12457598    -0.92400
C1298       C  0.93971054  0.40289450  0.17075785     1.16600
H1299       H  0.92531403  0.56890644  0.19698187     0.32600
H1300       H  0.07075448  0.51774543  0.17202196     0.43400
H1301       H  0.96461909  0.41719917  0.22497595     0.36900
H1302       H  0.02407511  0.52992868  0.29394350     0.33400
H1303       H  0.06844954  0.60183864  0.17295100     0.25200
H1304       H  0.12985459  0.51687778  0.27656808     0.31200
H1305       H  0.06823940  0.44244149  0.30148729     0.37100
H1306       H  0.93281708  0.56366283  0.13691444     0.31500
H1307       H  0.86593814  0.49142855  0.16409845     0.30400
H1308       H  0.88659755  0.42984108  0.24251135     0.32100
H1309       H  0.94946006  0.38926187  0.27438400     0.31000
H1310       H  0.05633939  0.55247003  0.12775449     0.35000
H1311       H  0.05567354  0.45457716  0.12858392     0.27800
H1312       H  0.92016884  0.57881028  0.30894149     0.32000
H1313       H  0.96032606  0.48517266  0.32702713     0.34900
H1314       H  0.90362659  0.50199193  0.14649318     0.27500
H1315       H  0.05247637  0.41098394  0.13641423     0.40300
H1316       H  0.13533852  0.55881602  0.21468923     0.30400
H1317       H  0.03654657  0.63290583  0.17208733     0.38000
H1318       H  0.92760546  0.41969722  0.29393858     0.29900
H1319       H  0.09336256  0.51983687  0.29767209     0.29900
H1320       H  0.96113632  0.56754922  0.31983600     0.30200
C1321       C  0.03280362  0.64198861  0.39274054    -0.12800
C1322       C  0.00987571  0.65654142  0.36967243     0.02700
C1323       C  0.02487684  0.68411892  0.35032152    -0.13300
C1324       C  0.06326376  0.69559600  0.35186872     0.17500
C1325       C  0.08278980  0.68714969  0.37871166    -0.10400
C1326       C  0.06757021  0.66016950  0.39886551    -0.03300
H1327       H  0.00836185  0.69137704  0.33112784     0.04100
C1328       C  0.08453560  0.70016212  0.32240678     0.19500
H1329       H  0.08437153  0.65122251  0.41803611     0.09200
C1330       C  0.11035829  0.67021134  0.31702728    -0.16700
C1331       C  0.09993387  0.64131721  0.29733389     0.02200
C1332       C  0.06702622  0.64625885  0.27939809    -0.12000
C1333       C  0.05135478  0.68320722  0.27698336    -0.02100
C1334       C  0.06314039  0.71156523  0.29722975    -0.07200
H1335       H  0.13212773  0.66357028  0.33332383     0.05200
H1336       H  0.02889512  0.68919400  0.26107208     0.08600
Br1337     Br  0.13227589  0.70752233  0.38658579    -0.06900
Br1338     Br  0.96133306  0.63542928  0.35935370    -0.03900
Br1339     Br  0.12753294  0.59421751  0.30133910    -0.01000
Br1340     Br  0.04012693  0.76100359  0.29730443    -0.05400
C1341       C  0.96771338  0.36834782  0.04365085    -0.12800
C1342       C  0.93523035  0.34607304  0.03730829     0.02700
C1343       C  0.92331361  0.31814936  0.05802483    -0.13300
C1344       C  0.93988260  0.31600120  0.08660942     0.17500
C1345       C  0.97687336  0.33201960  0.08966258    -0.10400
C1346       C  0.99026679  0.35776124  0.06813144    -0.03300
H1347       H  0.89688610  0.30325868  0.05408771     0.04100
C1348       C  0.91324302  0.31505356  0.11328261     0.19500
H1349       H  0.01711384  0.37186938  0.07217997     0.09200
C1350       C  0.92923821  0.30407079  0.14087189    -0.16700
C1351       C  0.93632591  0.33255419  0.16219119     0.02200
C1352       C  0.92267868  0.36964610  0.15673230    -0.12000
C1353       C  0.89421869  0.37509294  0.13528980    -0.02100
C1354       C  0.88719757  0.34616403  0.11467490    -0.07200
H1355       H  0.94468277  0.27734492  0.14229077     0.05200
H1356       H  0.87989934  0.40243382  0.13296880     0.08600
Br1357     Br  0.01242506  0.31992869  0.12108215    -0.06900
Br1358     Br  0.90261125  0.35446938  0.00354579    -0.03900
Br1359     Br  0.96917791  0.32210149  0.19537935    -0.01000
Br1360     Br  0.84806673  0.35500008  0.08543709    -0.05400
C1361       C  0.43191238  0.14538100  0.28383533    -0.12800
C1362       C  0.45323841  0.17071710  0.30180870     0.02700
C1363       C  0.43678845  0.18167513  0.32967567    -0.13300
C1364       C  0.40822879  0.15729872  0.34127444     0.17500
C1365       C  0.37940953  0.15384791  0.31965678    -0.10400
C1366       C  0.39208723  0.14361313  0.29036815    -0.03300
H1367       H  0.45114975  0.20155488  0.34413287     0.04100
C1368       C  0.42425460  0.11889967  0.35181455     0.19500
H1369       H  0.37255436  0.12973758  0.27530878     0.09200
C1370       C  0.40526340  0.08436881  0.34470416    -0.16700
C1371       C  0.42434983  0.04907050  0.34401056     0.02200
C1372       C  0.46328862  0.04691683  0.35092051    -0.12000
C1373       C  0.48228108  0.08106058  0.35705421    -0.02100
C1374       C  0.46277054  0.11535649  0.36077593    -0.07200
H1375       H  0.37584704  0.08453235  0.33789439     0.05200
H1376       H  0.51157343  0.08034299  0.36365018     0.08600
Br1377     Br  0.32711220  0.14743064  0.33183356    -0.06900
Br1378     Br  0.50415137  0.18665105  0.29207138    -0.03900
Br1379     Br  0.39692631  0.00547412  0.33021975    -0.01000
Br1380     Br  0.49071692  0.15445593  0.38085634    -0.05400
C1381       C  0.58192891  0.87925883  0.16177020    -0.12800
C1382       C  0.57654865  0.84297980  0.14894816     0.02700
C1383       C  0.60331428  0.82991282  0.12697127    -0.13300
C1384       C  0.62779714  0.85772191  0.11414419     0.17500
C1385       C  0.64371947  0.88058057  0.13679628    -0.10400
C1386       C  0.61889033  0.89440157  0.15928307    -0.03300
H1387       H  0.59698876  0.80437603  0.11436147     0.04100
C1388       C  0.60929823  0.88148862  0.08963944     0.19500
H1389       H  0.62778160  0.91757821  0.17329926     0.09200
C1390       C  0.56923547  0.88037014  0.08707707    -0.16700
C1391       C  0.54803147  0.91277255  0.08041653     0.02200
C1392       C  0.56666695  0.94682699  0.07145921    -0.12000
C1393       C  0.60692452  0.94594228  0.06900663    -0.02100
C1394       C  0.62790055  0.91325965  0.07669858    -0.07200
H1395       H  0.55335454  0.85505364  0.09318225     0.05200
H1396       H  0.62228470  0.96973452  0.05905888     0.08600
Br1397     Br  0.69580448  0.89647749  0.13644903    -0.06900
Br1398     Br  0.53439804  0.81221194  0.15971793    -0.03900
Br1399     Br  0.49384851  0.90622858  0.08471930    -0.01000
Br1400     Br  0.67996029  0.91017786  0.06298989    -0.05400
Zr1401     Zr  0.75101538  0.11801286  0.94566727     2.17500
O1402       O  0.72481315  0.16165596  0.90788437    -0.52200
O1403       O  0.68950755  0.08507294  0.94314308    -0.75400
O1404       O  0.76569816  0.09657866  0.89297948    -0.82200
O1405       O  0.71948844  0.17796485  0.51008058    -0.83900
O1406       O  0.82103124  0.06232504  0.89209018    -0.79500
O1407       O  0.72144952  0.17846696  0.96145526    -0.91200
O1408       O  0.69983680  0.02523274  0.96102261    -0.77100
O1409       O  0.76944707  0.05303927  0.94986691    -0.86600
O1410       O  0.73193939  0.09355261  0.49368915    -0.86300
O1411       O  0.81932164  0.11839469  0.94021008    -0.73100
O1412       O  0.78347255  0.15534802  0.98293687    -0.85200
Zr1413     Zr  0.85337038  0.06270565  0.52903851     2.26400
Zr1414     Zr  0.83736520  0.05258743  0.94480701     2.06300
Zr1415     Zr  0.76554143  0.13141074  0.52932139     2.10000
Zr1416     Zr  0.75052358  0.02868391  0.49823617     1.78800
O1417       O  0.78402571  0.19408173  0.54722422    -0.94000
O1418       O  0.75358543  0.96495841  0.98339680    -0.41800
O1419       O  0.78435598  0.06567186  0.53457847    -0.78400
O1420       O  0.81823920  0.02491123  0.49342174    -0.97100
O1421       O  0.87153761  0.08839195  0.98183689    -0.90400
O1422       O  0.83361295  0.12826686  0.52455624    -0.93300
C1423       C  0.67850731  0.05091955  0.94924470     1.00500
C1424       C  0.70972098  0.18932138  0.48353681     1.13400
C1425       C  0.79242695  0.07773903  0.87887385     1.04200
O1426       O  0.81588465  0.99604583  0.91828378    -0.95400
O1427       O  0.87920053  0.00151635  0.96044213    -0.91200
O1428       O  0.88570025  0.00238106  0.50975947    -0.84300
C1429       C  0.88886325  0.98698751  0.98587178     1.10800
O1430       O  0.84892217  0.21413572  0.95216649    -0.97400
Zr1431     Zr  0.85137409  0.15324027  0.97893115     1.88900
O1432       O  0.91578622  0.09495602  0.53417073    -0.74000
O1433       O  0.89773468  0.06410053  0.91811196    -0.53300
O1434       O  0.89685312  0.15411582  0.93663431    -0.98000
O1435       O  0.85515510  0.21268389  0.49835895    -0.55200
O1436       O  0.90927442  0.14831437  0.50532065    -0.74600
C1437       C  0.92784072  0.12728131  0.52377864     0.97800
O1438       O  0.86814901  0.01941911  0.57070308    -0.63400
O1439       O  0.70724368  0.12583345  0.55993636    -0.58200
O1440       O  0.83601506  0.08322226  0.58208244    -0.94900
O1441       O  0.78252805  0.12075068  0.58195198    -0.93300
O1442       O  0.70011934  0.03074071  0.53685636    -0.93700
O1443       O  0.75230556  0.97449746  0.53295377    -0.92400
C1444       C  0.80950427  0.10322468  0.59577887     1.16600
H1445       H  0.70480435  0.09706791  0.49688725     0.32600
H1446       H  0.82294896  0.99792411  0.49556406     0.43400
H1447       H  0.84520797  0.14354055  0.54000237     0.36900
H1448       H  0.82645835  0.12843597  0.92056215     0.33400
H1449       H  0.74826886  0.97268642  0.45144641     0.25200
H1450       H  0.90325721  0.04012185  0.90708755     0.31200
H1451       H  0.88305863  0.16430469  0.91894839     0.37100
H1452       H  0.68254039  0.00988483  0.53156507     0.31500
H1453       H  0.70962669  0.10107994  0.57066436     0.30400
H1454       H  0.76748500  0.19872081  0.56521619     0.32100
H1455       H  0.86855965  0.20879900  0.02420030     0.31000
H1456       H  0.76887735  0.98286343  0.54955221     0.35000
H1457       H  0.85088129  0.99746608  0.56803467     0.27800
H1458       H  0.70471728  0.14700201  0.89767644     0.32000
H1459       H  0.82672947  0.21191720  0.93872082     0.34900
H1460       H  0.70959660  0.14529361  0.57595864     0.27500
H1461       H  0.89406162  0.00919896  0.56637815     0.40300
H1462       H  0.83735368  0.97760383  0.91863495     0.30400
H1463       H  0.77497018  0.95354519  0.99479307     0.38000
H1464       H  0.82818694  0.22058375  0.50134476     0.29900
H1465       H  0.89174422  0.08293209  0.90206021     0.29900
H1466       H  0.74508338  0.16541597  0.89229526     0.30200
Zr1467     Zr  0.84923285  0.06661320  0.77794984     2.17500
O1468       O  0.89484973  0.04446303  0.81550444    -0.52200
O1469       O  0.87546468  0.00141885  0.76650058    -0.75400
O1470       O  0.82296599  0.06714085  0.83076395    -0.82200
O1471       O  0.91732960  0.11901380  0.72817528    -0.83900
O1472       O  0.75935784  0.08061305  0.83191331    -0.79500
O1473       O  0.90939182  0.10007206  0.77731214    -0.91200
O1474       O  0.84439399  0.97753501  0.72621871    -0.77100
O1475       O  0.79062363  0.03535737  0.76872445    -0.86600
O1476       O  0.85326893  0.05226237  0.72502684    -0.86300
O1477       O  0.80071192  0.11499571  0.78708944    -0.73100
O1478       O  0.85399691  0.12550851  0.74923101    -0.85200
Zr1479     Zr  0.74833989  0.11922793  0.69586352     2.26400
Zr1480     Zr  0.74188816  0.08277783  0.77849338     2.06300
Zr1481     Zr  0.85887953  0.11007137  0.69714254     2.10000
Zr1482     Zr  0.79449943  0.02017583  0.71600029     1.78800
O1483       O  0.88365869  0.17067762  0.67836795    -0.94000
O1484       O  0.76481550  0.96912890  0.74553671    -0.41800
O1485       O  0.80088278  0.07689220  0.68696953    -0.78400
O1486       O  0.74362025  0.06214871  0.72651630    -0.97100
O1487       O  0.74621007  0.13850321  0.74758954    -0.90400
O1488       O  0.80631286  0.15378812  0.70416855    -0.93300
C1489       C  0.87053199  0.97611191  0.74569370     1.00500
C1490       C  0.92877679  0.11581820  0.75595376     1.13400
C1491       C  0.79125820  0.07439161  0.84516341     1.04200
O1492       O  0.71189095  0.02671133  0.80096717    -0.95400
O1493       O  0.67809869  0.08029461  0.75793460    -0.91200
O1494       O  0.68335299  0.09403435  0.70740804    -0.84300
C1495       C  0.66444892  0.08251242  0.73120337     1.10800
O1496       O  0.85492993  0.20035501  0.78494878    -0.97400
Zr1497     Zr  0.80386402  0.17138645  0.75633031     1.88900
O1498       O  0.72881418  0.18621948  0.70032495    -0.74000
O1499       O  0.70261125  0.13057863  0.80450941    -0.53300
O1500       O  0.78645074  0.20048836  0.80472236    -0.98000
O1501       O  0.82983915  0.22574922  0.72810004    -0.55200
O1502       O  0.74444312  0.20503228  0.74741977    -0.74600
C1503       C  0.72448659  0.20781831  0.72355755     0.97800
O1504       O  0.70156764  0.12681868  0.65586449    -0.63400
O1505       O  0.90596408  0.07680511  0.66547718    -0.58200
O1506       O  0.77658216  0.11236543  0.64357953    -0.94900
O1507       O  0.84120485  0.10460747  0.64369853    -0.93300
O1508       O  0.81472518  0.99051827  0.66865635    -0.93700
O1509       O  0.74697809  0.99685497  0.68086672    -0.92400
C1510       C  0.80921541  0.10686528  0.62978164     1.16600
H1511       H  0.87603523  0.03836437  0.71926197     0.32600
H1512       H  0.72281679  0.04533516  0.72219851     0.43400
H1513       H  0.80817074  0.17528105  0.69047674     0.36900
H1514       H  0.80240000  0.12565465  0.80704771     0.33400
H1515       H  0.73727675  0.97565117  0.74645676     0.25200
H1516       H  0.72064656  0.15112676  0.80955614     0.31200
H1517       H  0.76336542  0.21617795  0.80111701     0.37100
H1518       H  0.83751574  0.00513201  0.66207049     0.31500
H1519       H  0.92750811  0.09478807  0.66331175     0.30400
H1520       H  0.90006221  0.16380785  0.66074003     0.32100
H1521       H  0.83339857  0.24602031  0.74328649     0.31000
H1522       H  0.73055927  0.97891205  0.69241545     0.35000
H1523       H  0.71143066  0.14736795  0.64246572     0.27800
H1524       H  0.88230676  0.02296812  0.82628938     0.32000
H1525       H  0.87397819  0.17971286  0.78785583     0.34900
H1526       H  0.91597458  0.05573086  0.67809235     0.27500
H1527       H  0.70343856  0.10327025  0.64361457     0.40300
H1528       H  0.68664084  0.03582277  0.80841177     0.30400
H1529       H  0.76659771  0.94632406  0.73245435     0.38000
H1530       H  0.80845692  0.23533036  0.71574612     0.29900
H1531       H  0.68621482  0.14207462  0.78880174     0.29900
H1532       H  0.89641065  0.06499186  0.83073224     0.30200
Zr1533     Zr  0.56199322  0.36260017  0.91596636     2.17500
O1534       O  0.55503511  0.40314495  0.87137855    -0.52200
O1535       O  0.49661876  0.38995193  0.92179503    -0.75400
O1536       O  0.56768400  0.33717276  0.86326439    -0.82200
O1537       O  0.59815950  0.42882287  0.97581555    -0.83900
O1538       O  0.57458316  0.27244112  0.86322550    -0.79500
O1539       O  0.59121088  0.42608023  0.92483897    -0.91200
O1540       O  0.46254883  0.33880813  0.93573274    -0.77100
O1541       O  0.52527859  0.30549723  0.92234713    -0.86600
O1542       O  0.53562182  0.36457753  0.96652132    -0.86300
O1543       O  0.60658188  0.30949261  0.91124065    -0.73100
O1544       O  0.61578824  0.36382547  0.94973701    -0.85200
Zr1545     Zr  0.59466143  0.25713632  0.00184543     2.26400
Zr1546     Zr  0.56888368  0.25263121  0.91723117     2.06300
Zr1547     Zr  0.58848188  0.36640014  0.99972454     2.10000
Zr1548     Zr  0.49975371  0.30730340  0.97273570     1.78800
O1549       O  0.65375174  0.38637214  0.51945877    -0.94000
O1550       O  0.45262216  0.26184212  0.95531539    -0.41800
O1551       O  0.55162812  0.30982095  0.00658589    -0.78400
O1552       O  0.54140878  0.25416534  0.96778796    -0.97100
O1553       O  0.62084185  0.25370211  0.95165765    -0.90400
O1554       O  0.63233040  0.31333842  0.99604656    -0.93300
C1555       C  0.46502242  0.37408299  0.92986987     1.00500
C1556       C  0.59991708  0.44408859  0.94920513     1.13400
C1557       C  0.57326390  0.30503331  0.84932132     1.04200
O1558       O  0.51117004  0.22873432  0.89411649    -0.95400
O1559       O  0.56147727  0.18949496  0.94141998    -0.91200
O1560       O  0.57634463  0.19164054  0.99145218    -0.84300
C1561       C  0.56483595  0.17414424  0.96794710     1.10800
O1562       O  0.69351734  0.35733141  0.91699219    -0.97400
Zr1563     Zr  0.65819839  0.30945417  0.94592824     1.88900
O1564       O  0.65931604  0.22860774  0.50256846    -0.74000
O1565       O  0.60901836  0.20495271  0.89208532    -0.53300
O1566       O  0.69292090  0.28761687  0.90095530    -0.98000
O1567       O  0.71095014  0.33042486  0.97695953    -0.55200
O1568       O  0.68791424  0.24893637  0.96024204    -0.74600
C1569       C  0.68552215  0.22812987  0.98420267     0.97800
O1570       O  0.59477774  0.21651148  0.54615257    -0.63400
O1571       O  0.55792581  0.41272211  0.52882907    -0.58200
O1572       O  0.58112340  0.28407984  0.55167250    -0.94900
O1573       O  0.58142223  0.34895708  0.55155886    -0.93300
O1574       O  0.46467538  0.35102380  0.00580319    -0.93700
O1575       O  0.47138171  0.28947102  0.52033770    -0.92400
C1576       C  0.57745613  0.31672614  0.56512302     1.16600
H1577       H  0.52031858  0.38693864  0.97090268     0.32600
H1578       H  0.52459845  0.23313140  0.97222912     0.43400
H1579       H  0.65506788  0.31124629  0.50979690     0.36900
H1580       H  0.61978078  0.31037792  0.89198072     0.33400
H1581       H  0.42790820  0.27568777  0.95648138     0.25200
H1582       H  0.59450969  0.19725594  0.87410261     0.31200
H1583       H  0.67559068  0.26954290  0.89104813     0.37100
H1584       H  0.48163748  0.35482702  0.02322116     0.31500
H1585       H  0.55740008  0.43675349  0.51700457     0.30400
H1586       H  0.64670053  0.40776435  0.53303140     0.32100
H1587       H  0.70413637  0.35683231  0.98289042     0.31000
H1588       H  0.48325885  0.27134622  0.02950250     0.35000
H1589       H  0.56790961  0.20848595  0.54905071     0.27800
H1590       H  0.58111620  0.41204338  0.86621398     0.32000
H1591       H  0.67470380  0.36801230  0.90270499     0.34900
H1592       H  0.53117705  0.40390351  0.52883101     0.27500
H1593       H  0.60874019  0.19285237  0.54053470     0.40300
H1594       H  0.50606829  0.24628043  0.87699818     0.30400
H1595       H  0.45795030  0.25920707  0.93334855     0.38000
H1596       H  0.73299002  0.33323273  0.96281493     0.29900
H1597       H  0.63108286  0.21926625  0.88377357     0.29900
H1598       H  0.54133696  0.42623144  0.87864537     0.30200
Zr1599     Zr  0.56019616  0.36969746  0.66713550     2.17500
O1600       O  0.55448022  0.42288337  0.63152862    -0.52200
O1601       O  0.49299861  0.39319971  0.67147871    -0.75400
O1602       O  0.56554887  0.34841123  0.61300389    -0.82200
O1603       O  0.61253313  0.42486006  0.72451806    -0.83900
O1604       O  0.56886121  0.28373643  0.61115733    -0.79500
O1605       O  0.59387980  0.42946356  0.67553444    -0.91200
O1606       O  0.46427120  0.35923184  0.70919641    -0.77100
O1607       O  0.52380243  0.31298488  0.67339325    -0.86600
O1608       O  0.53954961  0.36813616  0.71951696    -0.86300
O1609       O  0.60594301  0.31912042  0.65758156    -0.73100
O1610       O  0.61485392  0.36699555  0.69977023    -0.85200
Zr1611     Zr  0.60115626  0.25617646  0.74650671     2.26400
Zr1612     Zr  0.56852106  0.26254025  0.66322530     2.06300
Zr1613     Zr  0.59409186  0.36579991  0.75130328     2.10000
Zr1614     Zr  0.50484701  0.31016816  0.72564622     1.78800
O1615       O  0.64973392  0.38849746  0.77805337    -0.94000
O1616       O  0.45785394  0.27430144  0.69739927    -0.41800
O1617       O  0.55897769  0.30827339  0.75686087    -0.78400
O1618       O  0.54535243  0.25750187  0.71492306    -0.97100
O1619       O  0.62296894  0.25976680  0.69518549    -0.90400
O1620       O  0.63763605  0.31357921  0.74235557    -0.93300
C1621       C  0.46463807  0.38577529  0.68955805     1.00500
C1622       C  0.61099950  0.44245549  0.69869701     1.13400
C1623       C  0.56925419  0.31655040  0.59835836     1.04200
O1624       O  0.50842010  0.24310126  0.64132907    -0.95400
O1625       O  0.56383782  0.19681331  0.67720017    -0.91200
O1626       O  0.57929980  0.19408413  0.72711285    -0.84300
C1627       C  0.56751822  0.17907637  0.70228285     1.10800
O1628       O  0.69237006  0.36697416  0.66321685    -0.97400
Zr1629     Zr  0.65906384  0.31648979  0.69070810     1.88900
O1630       O  0.66901838  0.23718731  0.74436330    -0.74000
O1631       O  0.60835005  0.22171437  0.63089254    -0.53300
O1632       O  0.68823567  0.29237107  0.64412776    -0.98000
O1633       O  0.71193271  0.34214586  0.71935788    -0.55200
O1634       O  0.69397362  0.25880817  0.69991994    -0.74600
C1635       C  0.69423544  0.23664653  0.72282871     0.97800
O1636       O  0.60671042  0.20608446  0.78494963    -0.63400
O1637       O  0.55655741  0.41355675  0.77877605    -0.58200
O1638       O  0.58613613  0.27513533  0.80032779    -0.94900
O1639       O  0.58249645  0.33997378  0.80286412    -0.93300
O1640       O  0.47678187  0.33866847  0.77107122    -0.93700
O1641       O  0.46974417  0.27280316  0.76341170    -0.92400
C1642       C  0.58093355  0.30657746  0.81541314     1.16600
H1643       H  0.52476618  0.39047300  0.72497806     0.32600
H1644       H  0.52844063  0.23620103  0.71808018     0.43400
H1645       H  0.65818550  0.31338578  0.75665187     0.36900
H1646       H  0.61843592  0.32121529  0.63808200     0.33400
H1647       H  0.45765782  0.24810382  0.70586012     0.25200
H1648       H  0.62502232  0.23926692  0.61914992     0.31200
H1649       H  0.71609071  0.29362696  0.64738421     0.37100
H1650       H  0.49883056  0.34747724  0.78284950     0.31500
H1651       H  0.57425943  0.42375743  0.79393816     0.30400
H1652       H  0.65217959  0.37126895  0.79574825     0.32100
H1653       H  0.72012846  0.32121499  0.73297565     0.31000
H1654       H  0.47122671  0.24616929  0.75627407     0.35000
H1655       H  0.61853317  0.18398843  0.77442593     0.27800
H1656       H  0.53116958  0.41771778  0.61991377     0.32000
H1657       H  0.67211946  0.38030439  0.65180329     0.34900
H1658       H  0.55304999  0.43481202  0.76421939     0.27500
H1659       H  0.62690038  0.21479456  0.79867826     0.40300
H1660       H  0.51587928  0.22452688  0.62544806     0.30400
H1661       H  0.43284929  0.28543342  0.70343825     0.38000
H1662       H  0.70028304  0.36152489  0.73293539     0.29900
H1663       H  0.62602970  0.20856840  0.64481121     0.29900
H1664       H  0.57579195  0.41991948  0.61669218     0.30200
Zr1665     Zr  0.44901435  0.97779825  0.93228337     2.17500
O1666       O  0.39222214  0.00994225  0.91310029    -0.52200
O1667       O  0.44745925  0.90889724  0.92221559    -0.75400
O1668       O  0.46407049  0.96795476  0.87908065    -0.82200
O1669       O  0.39820154  0.96459736  0.00605745    -0.83900
O1670       O  0.52206813  0.98917115  0.87073746    -0.79500
O1671       O  0.39298646  0.95388666  0.95572250    -0.91200
O1672       O  0.49172277  0.88306132  0.95321497    -0.77100
O1673       O  0.51106536  0.98887845  0.94883906    -0.86600
O1674       O  0.46840594  0.94686899  0.97797616    -0.86300
O1675       O  0.48374267  0.03553713  0.91989995    -0.73100
O1676       O  0.43509734  0.02417404  0.97068015    -0.85200
Zr1677     Zr  0.55394257  0.04321136  0.49552376     2.26400
Zr1678     Zr  0.55191955  0.02047518  0.91403855     2.06300
Zr1679     Zr  0.45741830  0.99691620  0.51364102     2.10000
Zr1680     Zr  0.53477948  0.93269377  0.96885721     1.78800
O1681       O  0.42962434  0.04558155  0.54667980    -0.94000
O1682       O  0.55844367  0.91012511  0.92006133    -0.41800
O1683       O  0.52059696  0.98505154  0.49960226    -0.78400
O1684       O  0.57348554  0.98866554  0.95868800    -0.97100
O1685       O  0.53545736  0.06454177  0.95041351    -0.90400
O1686       O  0.49275566  0.05455700  0.00580267    -0.93300
C1687       C  0.46271665  0.88048863  0.93617007     1.00500
C1688       C  0.38034123  0.95238988  0.98282499     1.13400
C1689       C  0.48625842  0.99132410  0.86549832     1.04200
O1690       O  0.58584136  0.97031920  0.88586492    -0.95400
O1691       O  0.61872625  0.03889394  0.92474380    -0.91200
O1692       O  0.62267586  0.03999532  0.97589533    -0.84300
C1693       C  0.63747653  0.04278642  0.94939790     1.10800
O1694       O  0.40499164  0.09121195  0.94511500    -0.97400
Zr1695     Zr  0.47174033  0.08076768  0.95919462     1.88900
O1696       O  0.55930423  0.11343106  0.48997030    -0.74000
O1697       O  0.57315909  0.07551535  0.88478732    -0.53300
O1698       O  0.45423123  0.12597265  0.91963995    -0.98000
O1699       O  0.44908988  0.12206933  0.00045601    -0.55200
O1700       O  0.51734768  0.13075770  0.95882333    -0.74600
C1701       C  0.54886773  0.13582603  0.97212180     0.97800
O1702       O  0.58259515  0.06563366  0.54222110    -0.63400
O1703       O  0.43108861  0.96364490  0.55774268    -0.58200
O1704       O  0.56226069  0.00528648  0.54162815    -0.94900
O1705       O  0.50806758  0.97056901  0.54567568    -0.93300
O1706       O  0.53204670  0.89221197  0.51076417    -0.93700
O1707       O  0.59369303  0.91395987  0.48879365    -0.92400
C1708       C  0.54306762  0.97710506  0.55259080     1.16600
H1709       H  0.45361914  0.92485388  0.98392911     0.32600
H1710       H  0.59973862  0.98027095  0.95740923     0.43400
H1711       H  0.48657500  0.07512660  0.52307515     0.36900
H1712       H  0.47220546  0.04870465  0.90354027     0.33400
H1713       H  0.55784832  0.88194533  0.92157751     0.25200
H1714       H  0.58483333  0.09310800  0.89937401     0.31200
H1715       H  0.45865262  0.15162349  0.92814010     0.37100
H1716       H  0.50570487  0.89473696  0.51898370     0.31500
H1717       H  0.40517695  0.97435592  0.56124763     0.30400
H1718       H  0.40179003  0.04400626  0.54341104     0.32100
H1719       H  0.43705711  0.14424442  0.99032555     0.31000
H1720       H  0.61350382  0.91879324  0.47302081     0.35000
H1721       H  0.60356088  0.08269631  0.53559685     0.27800
H1722       H  0.37519828  0.01487890  0.93076864     0.32000
H1723       H  0.39562112  0.11368788  0.95659131     0.34900
H1724       H  0.42676085  0.93717450  0.55092234     0.27500
H1725       H  0.56319236  0.08288811  0.55143543     0.40300
H1726       H  0.61313686  0.97384803  0.89056963     0.30400
H1727       H  0.53782995  0.91669626  0.90584688     0.38000
H1728       H  0.47235217  0.13287619  0.00939215     0.29900
H1729       H  0.59466225  0.06608064  0.87196870     0.29900
H1730       H  0.40115934  0.03558419  0.90700535     0.30200
Zr1731     Zr  0.46991389  0.96482398  0.67418669     2.17500
O1732       O  0.44329035  0.97427733  0.62420336    -0.52200
O1733       O  0.46505909  0.89917856  0.68134932    -0.75400
O1734       O  0.52211021  0.91825058  0.66131971    -0.82200
O1735       O  0.37954918  0.99639744  0.71945183    -0.83900
O1736       O  0.56116709  0.92746046  0.69965092    -0.79500
O1737       O  0.39991176  0.95203409  0.68536468    -0.91200
O1738       O  0.47321297  0.89384041  0.73207739    -0.77100
O1739       O  0.50955383  0.99052119  0.71128265    -0.86600
O1740       O  0.44890439  0.96993531  0.72523167    -0.86300
O1741       O  0.52553961  0.00133328  0.65847511    -0.73100
O1742       O  0.45103947  0.03001052  0.67476689    -0.85200
Zr1743     Zr  0.53185764  0.06342749  0.74761079     2.26400
Zr1744     Zr  0.57462210  0.99325398  0.69588906     2.06300
Zr1745     Zr  0.43221351  0.03688259  0.72699258     2.10000
Zr1746     Zr  0.50047369  0.95424394  0.75539375     1.78800
O1747       O  0.38653261  0.07488589  0.69846151    -0.94000
O1748       O  0.55050457  0.90546685  0.75519328    -0.41800
O1749       O  0.48130869  0.02027174  0.76232410    -0.78400
O1750       O  0.55362590  0.99766771  0.74716656    -0.97100
O1751       O  0.55692568  0.05713682  0.69742294    -0.90400
O1752       O  0.48310348  0.07765950  0.71237492    -0.93300
C1753       C  0.46329631  0.88038437  0.70581334     1.00500
C1754       C  0.37458243  0.96629143  0.70418595     1.13400
C1755       C  0.55276529  0.91000143  0.67595009     1.04200
O1756       O  0.62742865  0.96054854  0.72055550    -0.95400
O1757       O  0.62148272  0.04314068  0.70538049    -0.91200
O1758       O  0.60063459  0.07286154  0.74799727    -0.84300
C1759       C  0.62628800  0.06598363  0.72762366     1.10800
O1760       O  0.48446829  0.05641563  0.61146950    -0.97400
Zr1761     Zr  0.50711429  0.06770989  0.66252423     1.88900
O1762       O  0.55178878  0.12435355  0.72943650    -0.74000
O1763       O  0.60644761  0.98847583  0.64653681    -0.53300
O1764       O  0.55653247  0.07556566  0.62361848    -0.98000
O1765       O  0.46549666  0.12037058  0.64765588    -0.55200
O1766       O  0.54084541  0.12527132  0.67867133    -0.74600
C1767       C  0.55319448  0.14010469  0.70334577     0.97800
O1768       O  0.55028415  0.06945413  0.80008634    -0.63400
O1769       O  0.39100953  0.03801828  0.77202394    -0.58200
O1770       O  0.48600621  0.10849652  0.77022898    -0.94900
O1771       O  0.42664186  0.09584764  0.75337384    -0.93300
O1772       O  0.45078138  0.94385507  0.79352708    -0.93700
O1773       O  0.51828277  0.95764870  0.80825021    -0.92400
C1774       C  0.44999389  0.11584550  0.76827517     1.16600
H1775       H  0.43015080  0.95222157  0.73283376     0.32600
H1776       H  0.57413270  0.99327389  0.76113671     0.43400
H1777       H  0.47557588  0.10418033  0.71312163     0.36900
H1778       H  0.53385923  0.99475781  0.63820796     0.33400
H1779       H  0.56877377  0.91357954  0.77071020     0.25200
H1780       H  0.60212884  0.01366330  0.63690225     0.31200
H1781       H  0.55118697  0.10084586  0.61444413     0.37100
H1782       H  0.43125392  0.96337720  0.78874554     0.31500
H1783       H  0.36657738  0.04922948  0.76517401     0.30400
H1784       H  0.37473665  0.05698774  0.68417504     0.32100
H1785       H  0.47222887  0.14192811  0.66087189     0.31000
H1786       H  0.54648463  0.95926310  0.80803006     0.35000
H1787       H  0.56812856  0.04789376  0.80357227     0.27800
H1788       H  0.42614092  0.99671354  0.62619254     0.32000
H1789       H  0.45642225  0.05989362  0.61272424     0.34900
H1790       H  0.38490816  0.01101654  0.77643075     0.27500
H1791       H  0.56638445  0.09252383  0.80070034     0.40300
H1792       H  0.65075383  0.97054113  0.71043428     0.30400
H1793       H  0.53822623  0.88248980  0.76397052     0.38000
H1794       H  0.43975348  0.11264425  0.65482384     0.29900
H1795       H  0.63402774  0.98844756  0.65107558     0.29900
H1796       H  0.42564424  0.95257689  0.62193205     0.30200
Zr1797     Zr  0.44405168  0.65012920  0.89539795     2.17500
O1798       O  0.44730948  0.60154294  0.85584498    -0.52200
O1799       O  0.50933268  0.62214832  0.89873486    -0.75400
O1800       O  0.43763365  0.67376548  0.84269626    -0.82200
O1801       O  0.39906707  0.59352776  0.95638639    -0.83900
O1802       O  0.43496798  0.73864654  0.84102431    -0.79500
O1803       O  0.41127035  0.58995019  0.90573514    -0.91200
O1804       O  0.53603550  0.67813045  0.90405625    -0.77100
O1805       O  0.48111439  0.70717433  0.89808411    -0.86600
O1806       O  0.47092309  0.65025704  0.94540315    -0.86300
O1807       O  0.39956917  0.70305247  0.89018181    -0.73100
O1808       O  0.39168391  0.65297305  0.93198539    -0.85200
Zr1809     Zr  0.41407783  0.76314814  0.97835640     2.26400
Zr1810     Zr  0.43758339  0.75994205  0.89323320     2.06300
Zr1811     Zr  0.41900685  0.65324976  0.98115021     2.10000
Zr1812     Zr  0.50746866  0.70743769  0.94755628     1.78800
O1813       O  0.36616737  0.63428087  0.01435484    -0.94000
O1814       O  0.55954906  0.75040778  0.93362525    -0.41800
O1815       O  0.45676577  0.70986024  0.98412159    -0.78400
O1816       O  0.46665805  0.76120958  0.94230834    -0.97100
O1817       O  0.38646322  0.76205389  0.92974604    -0.90400
O1818       O  0.37586857  0.70670528  0.97645900    -0.93300
C1819       C  0.53894882  0.64218189  0.90380789     1.00500
C1820       C  0.39755033  0.57621325  0.93053986     1.13400
C1821       C  0.43405038  0.70572658  0.82834925     1.04200
O1822       O  0.49523227  0.78509075  0.86910862    -0.95400
O1823       O  0.44474275  0.82631808  0.90812860    -0.91200
O1824       O  0.43796417  0.82526554  0.95955753    -0.84300
C1825       C  0.44616051  0.84213466  0.93419490     1.10800
O1826       O  0.30954630  0.66134603  0.90002148    -0.97400
Zr1827     Zr  0.34904215  0.70617399  0.92718003     1.88900
O1828       O  0.34941227  0.79201280  0.97746875    -0.74000
O1829       O  0.39007022  0.79821423  0.86687597    -0.53300
O1830       O  0.32201544  0.73880445  0.88359476    -0.98000
O1831       O  0.29757715  0.67688262  0.95677260    -0.55200
O1832       O  0.31241565  0.76066276  0.94414506    -0.74600
C1833       C  0.31852095  0.78804140  0.96232243     0.97800
O1834       O  0.41660930  0.80894981  0.01967253    -0.63400
O1835       O  0.45661208  0.60294012  0.00499217    -0.58200
O1836       O  0.42602598  0.74167686  0.03148268    -0.94900
O1837       O  0.43239602  0.67693456  0.03229087    -0.93300
O1838       O  0.53511463  0.65847274  0.97947103    -0.93700
O1839       O  0.55055146  0.73559581  0.98375963    -0.92400
C1840       C  0.43333396  0.71232607  0.54460437     1.16600
H1841       H  0.48544731  0.62736915  0.94955596     0.32600
H1842       H  0.48426782  0.78203030  0.94415505     0.43400
H1843       H  0.35653723  0.70679698  0.99229872     0.36900
H1844       H  0.38596553  0.70177230  0.87144995     0.33400
H1845       H  0.57332488  0.73806023  0.91653010     0.25200
H1846       H  0.37372403  0.80949432  0.88305007     0.31200
H1847       H  0.29419684  0.73996339  0.88782500     0.37100
H1848       H  0.52572214  0.66469343  0.00012397     0.31500
H1849       H  0.47742161  0.61632287  0.01535344     0.30400
H1850       H  0.35396119  0.61272268  0.00397518     0.32100
H1851       H  0.29128331  0.69531803  0.97303572     0.31000
H1852       H  0.53379237  0.75161464  0.99682320     0.35000
H1853       H  0.44207385  0.82094111  0.01792718     0.27800
H1854       H  0.46873043  0.60879064  0.84211019     0.32000
H1855       H  0.32522709  0.65397473  0.88212266     0.34900
H1856       H  0.44000985  0.59323936  0.02163906     0.27500
H1857       H  0.39838838  0.82949715  0.01422782     0.40300
H1858       H  0.51581512  0.76693222  0.87453523     0.30400
H1859       H  0.54718744  0.77305347  0.92445029     0.38000
H1860       H  0.30975236  0.65508926  0.96729604     0.29900
H1861       H  0.40430905  0.82008328  0.85817056     0.29900
H1862       H  0.42397290  0.60448760  0.84365747     0.30200
Zr1863     Zr  0.44780198  0.65557347  0.64575155     2.17500
O1864       O  0.45618199  0.60533159  0.60810942    -0.52200
O1865       O  0.51299973  0.62760998  0.65506903    -0.75400
O1866       O  0.44543884  0.68126493  0.59264844    -0.82200
O1867       O  0.40097392  0.59136599  0.70347132    -0.83900
O1868       O  0.43868666  0.74597472  0.59263123    -0.79500
O1869       O  0.40764794  0.59822642  0.65237234    -0.91200
O1870       O  0.54271081  0.68096680  0.66607077    -0.77100
O1871       O  0.48331472  0.71333592  0.65340881    -0.86600
O1872       O  0.46857252  0.65103431  0.69757680    -0.86300
O1873       O  0.40307969  0.70835846  0.63983942    -0.73100
O1874       O  0.39223286  0.65540912  0.67889619    -0.85200
Zr1875     Zr  0.40832707  0.76006735  0.73072702     2.26400
Zr1876     Zr  0.43899897  0.76586419  0.64693491     2.06300
Zr1877     Zr  0.41336735  0.65095917  0.72991380     2.10000
Zr1878     Zr  0.50423068  0.70784637  0.70494040     1.78800
O1879       O  0.35554117  0.62703397  0.75446417    -0.94000
O1880       O  0.56849749  0.73445368  0.70358017    -0.41800
O1881       O  0.45003307  0.70657155  0.73761683    -0.78400
O1882       O  0.46398189  0.76129609  0.69731825    -0.97100
O1883       O  0.38453376  0.76429489  0.68036781    -0.90400
O1884       O  0.37045970  0.70424369  0.72442640    -0.93300
C1885       C  0.54286035  0.64510011  0.66436119     1.00500
C1886       C  0.39620770  0.57980271  0.67614251     1.13400
C1887       C  0.44042848  0.71355745  0.57862513     1.04200
O1888       O  0.48835693  0.79953716  0.61827722    -0.95400
O1889       O  0.44787002  0.82767722  0.67430468    -0.91200
O1890       O  0.43773928  0.82235996  0.72526144    -0.84300
C1891       C  0.44847234  0.84117247  0.70176957     1.10800
O1892       O  0.31343095  0.66326833  0.64224070    -0.97400
Zr1893     Zr  0.34876491  0.70752363  0.67345327     1.88900
O1894       O  0.34328510  0.78641781  0.72881624    -0.74000
O1895       O  0.39117726  0.80582960  0.62248112    -0.53300
O1896       O  0.31785939  0.73407191  0.62890266    -0.98000
O1897       O  0.29949407  0.67592891  0.70393798    -0.55200
O1898       O  0.31079144  0.76118652  0.68980409    -0.74600
C1899       C  0.31435994  0.78484681  0.71138142     0.97800
O1900       O  0.39552371  0.79764182  0.77635512    -0.63400
O1901       O  0.44829356  0.60048076  0.75610253    -0.58200
O1902       O  0.42239343  0.73708840  0.78176224    -0.94900
O1903       O  0.42312217  0.67228701  0.78227559    -0.93300
O1904       O  0.52702305  0.65898110  0.73968988    -0.93700
O1905       O  0.52762521  0.75090918  0.74344136    -0.92400
C1906       C  0.42613011  0.70483088  0.79546228     1.16600
H1907       H  0.48259365  0.62798265  0.70220810     0.32600
H1908       H  0.48206188  0.78072379  0.70197139     0.43400
H1909       H  0.34978740  0.70356420  0.73915914     0.36900
H1910       H  0.39115066  0.70776276  0.62037337     0.33400
H1911       H  0.58571435  0.71269848  0.70806710     0.25200
H1912       H  0.37181356  0.78771763  0.61525891     0.31200
H1913       H  0.29058542  0.73696735  0.63476317     0.37100
H1914       H  0.50788198  0.65862092  0.75638691     0.31500
H1915       H  0.46093435  0.61259433  0.77341897     0.30400
H1916       H  0.36276504  0.62226061  0.77572440     0.32100
H1917       H  0.30216930  0.64838633  0.69941209     0.31000
H1918       H  0.50650835  0.75280497  0.75854821     0.35000
H1919       H  0.39262544  0.82448197  0.76966322     0.27800
H1920       H  0.48083495  0.61083482  0.59778575     0.32000
H1921       H  0.33287468  0.65216525  0.62830390     0.34900
H1922       H  0.42821565  0.58436642  0.76552538     0.27500
H1923       H  0.36957825  0.79034049  0.78341200     0.40300
H1924       H  0.50602129  0.77930150  0.61096520     0.30400
H1925       H  0.57421671  0.74100286  0.68217245     0.38000
H1926       H  0.27505283  0.68374108  0.69474292     0.29900
H1927       H  0.37816277  0.81992861  0.63908029     0.29900
H1928       H  0.43658327  0.60996084  0.59258817     0.30200
Zr1929     Zr  0.15031392  0.94377565  0.52433559     2.17500
O1930       O  0.09588067  0.93421302  0.55877221    -0.52200
O1931       O  0.12363790  0.01021706  0.52364373    -0.75400
O1932       O  0.16872478  0.93764138  0.57842629    -0.82200
O1933       O  0.09104985  0.91163582  0.96345423    -0.83900
O1934       O  0.23297441  0.92849301  0.57977544    -0.79500
O1935       O  0.08932309  0.91631126  0.51185872    -0.91200
O1936       O  0.16225302  0.04495392  0.49244493    -0.77100
O1937       O  0.20768546  0.98017072  0.52189818    -0.86600
O1938       O  0.15463666  0.97199961  0.97357756    -0.86300
O1939       O  0.20091753  0.89696952  0.53064060    -0.73100
O1940       O  0.15150918  0.89375267  0.98862680    -0.85200
Zr1941     Zr  0.26280722  0.91049207  0.94244721     2.26400
Zr1942     Zr  0.25817831  0.93415468  0.52791881     2.06300
Zr1943     Zr  0.15402600  0.92062429  0.93890787     2.10000
Zr1944     Zr  0.21326802  0.00630324  0.97049250     1.78800
O1945       O  0.13016205  0.86598558  0.91130823    -0.94000
O1946       O  0.24761862  0.05164953  0.50020924    -0.41800
O1947       O  0.21210983  0.95534180  0.93543233    -0.78400
O1948       O  0.26369179  0.96275967  0.97802236    -0.97100
O1949       O  0.25906132  0.88328934  0.99187456    -0.90400
O1950       O  0.20489763  0.87462953  0.94390602    -0.93300
C1951       C  0.13263910  0.04106657  0.50902246     1.00500
C1952       C  0.07529594  0.90797857  0.99003423     1.13400
C1953       C  0.19987961  0.93067377  0.59279973     1.04200
O1954       O  0.28031592  0.98999189  0.55500750    -0.95400
O1955       O  0.32397207  0.94164157  0.51006319    -0.91200
O1956       O  0.32483649  0.92981389  0.96111742    -0.84300
C1957       C  0.34150595  0.93814728  0.98600320     1.10800
O1958       O  0.15359594  0.81260220  0.52109703    -0.97400
Zr1959     Zr  0.20194706  0.84765637  0.99356743     1.88900
O1960       O  0.29051414  0.84588146  0.94557208    -0.74000
O1961       O  0.30067136  0.89068900  0.55478737    -0.53300
O1962       O  0.22456795  0.81202353  0.53855566    -0.98000
O1963       O  0.17942088  0.80101195  0.95724987    -0.55200
O1964       O  0.26189787  0.81367537  0.98435329    -0.74600
C1965       C  0.28857967  0.81775367  0.96441538     0.97800
O1966       O  0.30757223  0.91175635  0.89953393    -0.63400
O1967       O  0.10877877  0.96247492  0.91336177    -0.58200
O1968       O  0.24470461  0.92557779  0.88897575    -0.94900
O1969       O  0.18022269  0.93396491  0.88782952    -0.93300
O1970       O  0.19650118  0.04377306  0.92600657    -0.93700
O1971       O  0.26182981  0.03804718  0.93938225    -0.92400
C1972       C  0.21351247  0.93371444  0.87475130     1.16600
H1973       H  0.13229934  0.98682481  0.96857701     0.32600
H1974       H  0.28529565  0.97952841  0.97612763     0.43400
H1975       H  0.20496241  0.85598072  0.92789453     0.36900
H1976       H  0.19795479  0.88336182  0.54953580     0.33400
H1977       H  0.26855430  0.05810581  0.99402950     0.25200
H1978       H  0.28393978  0.87585100  0.56867607     0.31200
H1979       H  0.22746900  0.78522807  0.53183593     0.37100
H1980       H  0.18446346  0.02536391  0.91225201     0.31500
H1981       H  0.12369824  0.98535668  0.90758494     0.30400
H1982       H  0.10297598  0.87211108  0.90771265     0.32100
H1983       H  0.15239464  0.79632176  0.96287752     0.31000
H1984       H  0.27567372  0.01714443  0.92882042     0.35000
H1985       H  0.32450069  0.93377243  0.90298050     0.27800
H1986       H  0.09565103  0.95639923  0.57252871     0.32000
H1987       H  0.12974293  0.81997808  0.51083510     0.34900
H1988       H  0.10352454  0.94970459  0.89396165     0.27500
H1989       H  0.32415183  0.88903380  0.90213505     0.40300
H1990       H  0.26034512  0.99556504  0.57051716     0.30400
H1991       H  0.26869521  0.03656772  0.50904347     0.38000
H1992       H  0.19290738  0.77703549  0.96255439     0.29900
H1993       H  0.30926626  0.87195070  0.53938089     0.29900
H1994       H  0.10235431  0.91195875  0.57168228     0.30200
Zr1995     Zr  0.15535112  0.94952964  0.77616492     2.17500
O1996       O  0.10860778  0.96131815  0.81679531    -0.52200
O1997       O  0.12858556  0.01575770  0.77118501    -0.75400
O1998       O  0.18221552  0.94648283  0.82796819    -0.82200
O1999       O  0.09151349  0.89259540  0.72468372    -0.83900
O2000       O  0.24705576  0.94116776  0.82609885    -0.79500
O2001       O  0.09424399  0.91508194  0.77288190    -0.91200
O2002       O  0.15763990  0.04337789  0.73057112    -0.77100
O2003       O  0.21121874  0.98622209  0.76426347    -0.86600
O2004       O  0.14919338  0.96649654  0.72390834    -0.86300
O2005       O  0.20920557  0.90610269  0.78190994    -0.73100
O2006       O  0.15382240  0.89182523  0.74638706    -0.85200
Zr2007     Zr  0.25673576  0.90515257  0.68974826     2.26400
Zr2008     Zr  0.26524490  0.94371572  0.77092852     2.06300
Zr2009     Zr  0.14778725  0.90965785  0.69430428     2.10000
Zr2010     Zr  0.20491604  0.00220448  0.71169405     1.78800
O2011       O  0.12736912  0.85147900  0.66969719    -0.94000
O2012       O  0.24287896  0.05624336  0.72791622    -0.41800
O2013       O  0.20300360  0.94585812  0.68282192    -0.78400
O2014       O  0.25926577  0.96350695  0.71886439    -0.97100
O2015       O  0.26266898  0.88650801  0.74153290    -0.90400
O2016       O  0.20168348  0.86755892  0.70016554    -0.93300
C2017       C  0.13289253  0.04322074  0.75177518     1.00500
C2018       C  0.07759897  0.89680445  0.75164541     1.13400
C2019       C  0.21477574  0.94194380  0.84099972     1.04200
O2020       O  0.28954519  0.00327625  0.79107124    -0.95400
O2021       O  0.32532734  0.95082089  0.73957625    -0.91200
O2022       O  0.31952953  0.93276952  0.69030609    -0.84300
C2023       C  0.33830065  0.94725026  0.71184566     1.16800
O2024       O  0.16309579  0.82252101  0.78983557    -0.97400
Zr2025     Zr  0.20712556  0.84963772  0.75214267     1.88900
O2026       O  0.28514906  0.84179873  0.69619055    -0.74000
O2027       O  0.31525474  0.90938410  0.79785841    -0.53300
O2028       O  0.23841774  0.81969192  0.79510113    -0.98000
O2029       O  0.17653830  0.79846071  0.72444234    -0.55200
O2030       O  0.26087308  0.81054829  0.73710834    -0.74600
C2031       C  0.28462901  0.81389174  0.71506258     0.97800
O2032       O  0.29303318  0.88541095  0.64475010    -0.63400
O2033       O  0.09343925  0.94302446  0.67234324    -0.58200
O2034       O  0.23089882  0.91786755  0.63914536    -0.94900
O2035       O  0.16605815  0.92150403  0.64056268    -0.93300
O2036       O  0.16578073  0.02764140  0.67112991    -0.93700
O2037       O  0.23993041  0.02819421  0.66828933    -0.92400
C2038       C  0.19849337  0.92290834  0.62616382     1.16600
H2039       H  0.12591019  0.98050618  0.72026090     0.32600
H2040       H  0.27810335  0.98163302  0.71205420     0.43400
H2041       H  0.20096128  0.84608714  0.68659397     0.36900
H2042       H  0.20956446  0.89410569  0.80152646     0.33400
H2043       H  0.22419989  0.07664386  0.73300311     0.25200
H2044       H  0.33239679  0.89877961  0.78192711     0.31200
H2045       H  0.25947821  0.83722052  0.80001391     0.37100
H2046       H  0.16560347  0.00732291  0.65565368     0.31500
H2047       H  0.07730140  0.95145510  0.68970066     0.30400
H2048       H  0.11183457  0.86049178  0.65252774     0.32100
H2049       H  0.14880273  0.80374926  0.72629642     0.31000
H2050       H  0.24991221  0.00550883  0.65739226     0.35000
H2051       H  0.31875535  0.87799220  0.65177386     0.27800
H2052       H  0.11800631  0.98374172  0.82793748     0.32000
H2053       H  0.15211729  0.79927656  0.78095768     0.34900
H2054       H  0.10417118  0.96691222  0.66384944     0.27500
H2055       H  0.28143398  0.86107557  0.63842252     0.40300
H2056       H  0.30768518  0.99551129  0.80695012     0.30400
H2057       H  0.25345904  0.04836251  0.74762618     0.38000
H2058       H  0.18085474  0.77497676  0.73648460     0.29900
H2059       H  0.33053815  0.92942975  0.80757678     0.29900
H2060       H  0.11077977  0.93964715  0.83115299     0.30200
Zr2061     Zr  0.94339167  0.86665028  0.51575410     2.17500
O2062       O  0.94887782  0.91096677  0.55801072    -0.52200
O2063       O  0.01072984  0.89075934  0.50737421    -0.75400
O2064       O  0.93874030  0.84928753  0.57038606    -0.82200
O2065       O  0.90251017  0.93056381  0.95770915    -0.83900
O2066       O  0.93350519  0.78489773  0.57438821    -0.79500
O2067       O  0.91768544  0.92973919  0.50550089    -0.91200
O2068       O  0.03972865  0.85707347  0.46962544    -0.77100
O2069       O  0.98019728  0.80941599  0.51246024    -0.86600
O2070       O  0.96544985  0.86648210  0.96600981    -0.86300
O2071       O  0.89713529  0.81642764  0.52552726    -0.73100
O2072       O  0.88831542  0.86604055  0.98620296    -0.85200
Zr2073     Zr  0.90759025  0.75635663  0.93880731     2.26400
Zr2074     Zr  0.93517717  0.75958697  0.52319726     2.06300
Zr2075     Zr  0.91080261  0.86650089  0.93501735     2.10000
Zr2076     Zr  0.00184545  0.80861890  0.96068725     1.78800
O2077       O  0.85189653  0.88900757  0.91231060    -0.94000
O2078       O  0.05640018  0.78862202  0.99063522    -0.41800
O2079       O  0.94800275  0.80955795  0.92927083    -0.78400
O2080       O  0.96197731  0.75627216  0.97180124    -0.97100
O2081       O  0.88441425  0.75712817  0.98986490    -0.90400
O2082       O  0.86882253  0.81299881  0.94293228    -0.93300
C2083       C  0.03882075  0.88412502  0.48845698     1.00500
C2084       C  0.90394410  0.94698944  0.98387971     1.13400
C2085       C  0.93428830  0.81835651  0.58608811     1.04200
O2086       O  0.99287766  0.73543749  0.54679654    -0.95400
O2087       O  0.93952939  0.69332698  0.50920404    -0.91200
O2088       O  0.92820492  0.69294445  0.95743276    -0.84300
C2089       C  0.93900911  0.67709468  0.98239354     1.10800
O2090       O  0.80598384  0.86455375  0.51224757    -0.97400
Zr2091     Zr  0.84599281  0.81252898  0.99408006     1.88900
O2092       O  0.84180748  0.73246196  0.93891343    -0.74000
O2093       O  0.89343139  0.72309524  0.55707252    -0.53300
O2094       O  0.81110966  0.79491801  0.54007172    -0.98000
O2095       O  0.78980460  0.83294512  0.96628101    -0.55200
O2096       O  0.81565971  0.75066049  0.98381536    -0.74600
C2097       C  0.81700758  0.72868314  0.96052058     0.97800
O2098       O  0.91513323  0.71207309  0.89692489    -0.63400
O2099       O  0.94881617  0.91329580  0.90695595    -0.58200
O2100       O  0.92078106  0.77757649  0.88532637    -0.94900
O2101       O  0.92202025  0.84255428  0.88329094    -0.93300
O2102       O  0.02860678  0.82579270  0.91124719    -0.93700
O2103       O  0.03568021  0.75764386  0.93372085    -0.92400
C2104       C  0.92498006  0.80952458  0.87060452     1.16600
H2105       H  0.97879299  0.88946877  0.96029557     0.32600
H2106       H  0.97883475  0.73465236  0.96911753     0.43400
H2107       H  0.84838446  0.81283863  0.92853244     0.36900
H2108       H  0.88494091  0.81967682  0.54504646     0.33400
H2109       H  0.05001139  0.76265833  0.99792990     0.25200
H2110       H  0.87818804  0.70673588  0.54372464     0.31200
H2111       H  0.82179887  0.76971530  0.54579506     0.37100
H2112       H  0.00752343  0.83842173  0.90032787     0.31500
H2113       H  0.97168308  0.89913358  0.89964760     0.30400
H2114       H  0.86006203  0.90035539  0.89270838     0.32100
H2115       H  0.76930689  0.83561513  0.98184395     0.31000
H2116       H  0.01632311  0.74595612  0.92064758     0.35000
H2117       H  0.94140808  0.70201607  0.89919405     0.27800
H2118       H  0.92283038  0.92104716  0.56222770     0.32000
H2119       H  0.82398667  0.87906176  0.52475180     0.34900
H2120       H  0.93417946  0.91896752  0.88848669     0.27500
H2121       H  0.89830535  0.69031045  0.90199427     0.40300
H2122       H  0.98360682  0.71760024  0.56270701     0.30400
H2123       H  0.06780440  0.78988027  0.49363981     0.38000
H2124       H  0.78229083  0.81031502  0.95452285     0.29900
H2125       H  0.91059502  0.70516475  0.56777042     0.29900
H2126       H  0.96344705  0.93306719  0.55005500     0.30200
Zr2127     Zr  0.94421953  0.86710378  0.77078700     2.17500
O2128       O  0.95074638  0.91535447  0.81006836    -0.52200
O2129       O  0.01079980  0.89181594  0.76625646    -0.75400
O2130       O  0.93704482  0.84144607  0.82318102    -0.82200
O2131       O  0.89705983  0.92914665  0.71451819    -0.83900
O2132       O  0.93339432  0.77679262  0.82286993    -0.79500
O2133       O  0.91035439  0.92713528  0.76482767    -0.91200
O2134       O  0.04364539  0.84049813  0.75032608    -0.77100
O2135       O  0.97816806  0.80896305  0.76351774    -0.86600
O2136       O  0.96936093  0.87120832  0.71976541    -0.86300
O2137       O  0.89628127  0.81769345  0.77575268    -0.73100
O2138       O  0.89190400  0.86897576  0.73572366    -0.85200
Zr2139     Zr  0.90840087  0.76274056  0.68473541     2.26400
Zr2140     Zr  0.93109402  0.75951917  0.76878817     2.06300
Zr2141     Zr  0.91708807  0.87257634  0.68552243     2.10000
Zr2142     Zr  0.00399625  0.81334829  0.71294431     1.78800
O2143       O  0.86205620  0.89681993  0.65828006    -0.94000
O2144       O  0.05488563  0.76816781  0.72529627    -0.41800
O2145       O  0.95224265  0.81467396  0.67876516    -0.78400
O2146       O  0.96130768  0.76202852  0.71944248    -0.97100
O2147       O  0.88022784  0.76133967  0.73421330    -0.90400
O2148       O  0.87258999  0.82079978  0.68940410    -0.93300
C2149       C  0.04218611  0.87534767  0.75782976     1.00500
C2150       C  0.89562119  0.94302003  0.74163010     1.13400
C2151       C  0.93294426  0.80899059  0.83688733     1.04200
O2152       O  0.96583493  0.71037309  0.79510130    -0.95400
O2153       O  0.94348164  0.69762702  0.74549591    -0.91200
O2154       O  0.93753863  0.69999714  0.69428408    -0.84300
C2155       C  0.94662551  0.68276445  0.71894622     1.10800
O2156       O  0.80844176  0.87074001  0.76283434    -0.97400
Zr2157     Zr  0.84585005  0.81956173  0.73951997     1.88900
O2158       O  0.84165579  0.73856490  0.68633943    -0.74000
O2159       O  0.87315943  0.72889251  0.78769850    -0.53300
O2160       O  0.80848518  0.80509582  0.78508398    -0.98000
O2161       O  0.79727589  0.84068298  0.70398055    -0.55200
O2162       O  0.81372695  0.76069476  0.72949050    -0.74600
C2163       C  0.81503008  0.73807473  0.70695115     0.97800
O2164       O  0.90347660  0.71633504  0.64387561    -0.63400
O2165       O  0.95876180  0.91989330  0.66176558    -0.58200
O2166       O  0.92115058  0.78879085  0.63354607    -0.94900
O2167       O  0.92747072  0.85330919  0.63262907    -0.93300
O2168       O  0.03558749  0.86131055  0.68142073    -0.93700
O2169       O  0.03372607  0.78528559  0.66791530    -0.92400
C2170       C  0.92741243  0.82057733  0.61948979     1.16600
H2171       H  0.98477711  0.89358190  0.71625148     0.32600
H2172       H  0.97997351  0.74213504  0.71626148     0.43400
H2173       H  0.85377687  0.82217820  0.67370721     0.36900
H2174       H  0.88329539  0.81838748  0.79514582     0.33400
H2175       H  0.05032978  0.74472427  0.71353650     0.25200
H2176       H  0.87836296  0.70119245  0.78579660     0.31200
H2177       H  0.81339871  0.77775872  0.78929508     0.37100
H2178       H  0.02127455  0.86154771  0.66227407     0.31500
H2179       H  0.94462666  0.92917376  0.64392899     0.30400
H2180       H  0.87052743  0.92145645  0.64953271     0.32100
H2181       H  0.80351533  0.86755352  0.69910391     0.31000
H2182       H  0.01784469  0.76281472  0.66342494     0.35000
H2183       H  0.88386181  0.72652492  0.63004909     0.27800
H2184       H  0.97276264  0.90703113  0.82228808     0.32000
H2185       H  0.81388024  0.89360490  0.75028751     0.34900
H2186       H  0.95847075  0.94176272  0.67584459     0.27500
H2187       H  0.92782329  0.71746557  0.63218543     0.40300
H2188       H  0.94647210  0.69872972  0.80875982     0.30400
H2189       H  0.07849784  0.77922110  0.71641612     0.38000
H2190       H  0.77314983  0.84199717  0.71592220     0.29900
H2191       H  0.87282151  0.73354950  0.80977921     0.29900
H2192       H  0.92821819  0.91274211  0.82375506     0.30200
Zr2193     Zr  0.75255724  0.61465306  0.99459133     2.17500
O2194       O  0.77383192  0.65542650  0.03558453    -0.52200
O2195       O  0.81743242  0.58769877  0.99206774    -0.75400
O2196       O  0.74163572  0.58760488  0.54808581    -0.82200
O2197       O  0.77705992  0.68780769  0.93222235    -0.83900
O2198       O  0.68877198  0.55037911  0.54849034    -0.79500
O2199       O  0.78207309  0.67694376  0.98292404    -0.91200
O2200       O  0.81564487  0.53612008  0.96116661    -0.77100
O2201       O  0.73967353  0.54879236  0.98622048    -0.86600
O2202       O  0.77048262  0.60206981  0.94285213    -0.86300
O2203       O  0.68464043  0.60815819  0.00203304    -0.73100
O2204       O  0.71396681  0.65492676  0.96240802    -0.85200
Zr2205     Zr  0.65251410  0.56513222  0.90879566     2.26400
Zr2206     Zr  0.67212387  0.54202537  0.99358242     2.06300
Zr2207     Zr  0.73221077  0.64178754  0.91090967     2.10000
Zr2208     Zr  0.75726969  0.53649014  0.93473348     1.78800
O2209       O  0.70651221  0.70393288  0.89622988    -0.94000
O2210       O  0.76649348  0.47146208  0.95343189    -0.41800
O2211       O  0.72010948  0.57550921  0.90183476    -0.78400
O2212       O  0.69096493  0.52664152  0.94237291    -0.97100
O2213       O  0.63329429  0.57951659  0.96005268    -0.90400
O2214       O  0.66514814  0.63164406  0.91697302    -0.93300
C2215       C  0.83272799  0.55878920  0.97864827     1.00500
C2216       C  0.78979048  0.69614278  0.95857385     1.13400
C2217       C  0.71623145  0.56711302  0.56219066     1.04200
O2218       O  0.68993650  0.47818047  0.01041326    -0.95400
O2219       O  0.62909522  0.49471256  0.97383135    -0.91200
O2220       O  0.62092407  0.50282699  0.92307927    -0.84300
C2221       C  0.61668389  0.48354266  0.94816399     1.10800
O2222       O  0.64035320  0.69381949  0.00672680    -0.97400
Zr2223     Zr  0.64668492  0.64511914  0.96781992     1.88900
O2224       O  0.58889218  0.59441443  0.90418891    -0.74000
O2225       O  0.61555061  0.54665748  0.02631469    -0.53300
O2226       O  0.59816931  0.63278494  0.00655499    -0.98000
O2227       O  0.64529983  0.71215371  0.95274890    -0.55200
O2228       O  0.59169728  0.64615120  0.93492975    -0.74600
C2229       C  0.57526415  0.62586955  0.91484584     0.97800
O2230       O  0.64705330  0.52283368  0.86547483    -0.63400
O2231       O  0.78700532  0.64732378  0.87653058    -0.58200
O2232       O  0.66522809  0.59098375  0.85630240    -0.94900
O2233       O  0.71592847  0.63139797  0.85766175    -0.93300
O2234       O  0.80939775  0.54488995  0.89825811    -0.93700
O2235       O  0.75428780  0.49054580  0.89363811    -0.92400
C2236       C  0.69019879  0.61314470  0.84313593     1.16600
H2237       H  0.79705687  0.60764781  0.93888246     0.32600
H2238       H  0.68758149  0.49982769  0.93861216     0.43400
H2239       H  0.65166319  0.64747781  0.90267058     0.36900
H2240       H  0.67746941  0.61519627  0.02245770     0.33400
H2241       H  0.76898128  0.47409952  0.97560416     0.25200
H2242       H  0.61561809  0.55797655  0.54316486     0.31200
H2243       H  0.58532452  0.60923591  0.99998793     0.37100
H2244       H  0.80038203  0.56517665  0.88439216     0.31500
H2245       H  0.78873145  0.67492194  0.87178425     0.30400
H2246       H  0.69582848  0.70026036  0.87585584     0.32100
H2247       H  0.64095674  0.71185957  0.93068844     0.31000
H2248       H  0.73048566  0.47606104  0.89733608     0.35000
H2249       H  0.66043412  0.49901484  0.87138830     0.27800
H2250       H  0.78861565  0.64748578  0.54516378     0.32000
H2251       H  0.66651773  0.69668495  0.01454062     0.34900
H2252       H  0.80955685  0.64183850  0.88906970     0.27500
H2253       H  0.61974660  0.51593593  0.86466642     0.40300
H2254       H  0.66843972  0.46992686  0.02367569     0.30400
H2255       H  0.74169261  0.45859850  0.95095082     0.38000
H2256       H  0.67195119  0.72099366  0.95465102     0.29900
H2257       H  0.59200240  0.54248205  0.51615680     0.29900
H2258       H  0.74567605  0.66074505  0.54747675     0.30200
Zr2259     Zr  0.65540866  0.56778374  0.66209153     2.17500
O2260       O  0.60834310  0.55056892  0.62438620    -0.52200
O2261       O  0.63011460  0.50233166  0.67437398    -0.75400
O2262       O  0.68369781  0.56084563  0.61022877    -0.82200
O2263       O  0.58919048  0.63433978  0.70300086    -0.83900
O2264       O  0.74781266  0.57038046  0.61098492    -0.79500
O2265       O  0.59467833  0.60150233  0.65879568    -0.91200
O2266       O  0.65681956  0.48142831  0.71776045    -0.77100
O2267       O  0.71167597  0.53451134  0.67693391    -0.86600
O2268       O  0.64652726  0.55943057  0.71566313    -0.86300
O2269       O  0.70715569  0.61206432  0.65148129    -0.73100
O2270       O  0.65208653  0.63009607  0.68582109    -0.85200
Zr2271     Zr  0.75218872  0.62681027  0.74388024     2.26400
Zr2272     Zr  0.76361016  0.57757020  0.66566160     2.06300
Zr2273     Zr  0.64271332  0.62117058  0.73895606     2.10000
Zr2274     Zr  0.70310515  0.52644547  0.73062034     1.78800
O2275       O  0.62214419  0.68264040  0.75919288    -0.94000
O2276       O  0.73649119  0.46751501  0.71694717    -0.41800
O2277       O  0.69845821  0.58704425  0.75381928    -0.78400
O2278       O  0.75656979  0.56492806  0.71938947    -0.97100
O2279       O  0.75980610  0.63774180  0.69060959    -0.90400
O2280       O  0.69661702  0.66249878  0.73007513    -0.93300
C2281       C  0.63367734  0.47781040  0.69624540     1.00500
C2282       C  0.57706836  0.62485865  0.67635188     1.13400
C2283       C  0.71637561  0.56499417  0.59655895     1.04200
O2284       O  0.79638850  0.51953446  0.64933026    -0.95400
O2285       O  0.82300598  0.57609630  0.69523213    -0.91200
O2286       O  0.81635263  0.59950798  0.74318217    -0.84300
C2287       C  0.83562324  0.58281124  0.72215538     1.10800
O2288       O  0.66019761  0.69811290  0.63974998    -0.97400
Zr2289     Zr  0.70455209  0.67247435  0.67673328     1.88900
O2290       O  0.77957786  0.68938915  0.73106425    -0.74000
O2291       O  0.80850258  0.61548386  0.63564675    -0.53300
O2292       O  0.72551044  0.70323739  0.62983258    -0.98000
O2293       O  0.67758863  0.72869328  0.70176689    -0.55200
O2294       O  0.76564785  0.70417475  0.68261107    -0.74600
C2295       C  0.78511425  0.70870674  0.70656257     0.97800
O2296       O  0.78502505  0.65035452  0.78838884    -0.63400
O2297       O  0.58655720  0.59636693  0.76540031    -0.58200
O2298       O  0.72406643  0.62317604  0.79597498    -0.94900
O2299       O  0.65985672  0.61440837  0.79367646    -0.93300
O2300       O  0.66786653  0.51425920  0.77763967    -0.93700
O2301       O  0.74396918  0.50190294  0.77047664    -0.92400
C2302       C  0.69108639  0.61740776  0.80888080     1.16600
H2303       H  0.62337265  0.54592654  0.72082148     0.32600
H2304       H  0.77606270  0.54825264  0.72718396     0.43400
H2305       H  0.69509935  0.68554534  0.74191161     0.36900
H2306       H  0.70744091  0.62033966  0.63067446     0.33400
H2307       H  0.72763580  0.46125836  0.69640620     0.25200
H2308       H  0.82088368  0.63247173  0.65032314     0.31200
H2309       H  0.74338871  0.68473636  0.62027083     0.37100
H2310       H  0.66336305  0.48639585  0.77795004     0.31500
H2311       H  0.59614577  0.57444363  0.77735498     0.30400
H2312       H  0.63673389  0.68572902  0.77802327     0.32100
H2313       H  0.65471881  0.73584366  0.69013384     0.31000
H2314       H  0.75348013  0.52493942  0.78071802     0.35000
H2315       H  0.81261700  0.65004221  0.78322696     0.27800
H2316       H  0.61596325  0.52486616  0.61720188     0.32000
H2317       H  0.63509618  0.68726815  0.64556248     0.34900
H2318       H  0.58003406  0.61603348  0.78069127     0.27500
H2319       H  0.77836716  0.67783040  0.78962994     0.40300
H2320       H  0.78579500  0.49916794  0.66251540     0.30400
H2321       H  0.76348323  0.47499114  0.71388473     0.38000
H2322       H  0.69615084  0.74923857  0.69734426     0.29900
H2323       H  0.82880635  0.59719332  0.62947103     0.29900
H2324       H  0.61264556  0.56762892  0.60673327     0.30200
Zr2325     Zr  0.06067390  0.15079277  0.53815475     2.17500
O2326       O  0.05155478  0.10338811  0.57830109    -0.52200
O2327       O  0.99519005  0.12356803  0.53693424    -0.75400
O2328       O  0.06774370  0.17722733  0.58984275    -0.82200
O2329       O  0.10339557  0.08921342  0.97686174    -0.83900
O2330       O  0.07039443  0.24204142  0.58878878    -0.79500
O2331       O  0.09444770  0.09045993  0.53129867    -0.91200
O2332       O  0.96869750  0.17936018  0.52790070    -0.77100
O2333       O  0.02237570  0.20673570  0.53181318    -0.86600
O2334       O  0.03563333  0.14691442  0.98818679    -0.86300
O2335       O  0.10497866  0.20383882  0.54117794    -0.73100
O2336       O  0.11353520  0.15131118  0.50190403    -0.85200
Zr2337     Zr  0.09241664  0.25688389  0.95002665     2.26400
Zr2338     Zr  0.06506631  0.25942108  0.53497564     2.06300
Zr2339     Zr  0.08722273  0.14881336  0.95167525     2.10000
Zr2340     Zr  0.99796231  0.20360421  0.98401471     1.78800
O2341       O  0.14607978  0.12955763  0.92566384    -0.94000
O2342       O  0.94047316  0.24156702  0.48913333    -0.41800
O2343       O  0.04846648  0.20475221  0.94668111    -0.78400
O2344       O  0.03911375  0.25720349  0.98542249    -0.97100
O2345       O  0.11770185  0.25987774  0.49974736    -0.90400
O2346       O  0.13099968  0.20102776  0.95434242    -0.93300
C2347       C  0.96536837  0.14365312  0.53165831     1.00500
C2348       C  0.10784617  0.07485507  0.50720097     1.13400
C2349       C  0.07132395  0.20987642  0.60302035     1.04200
O2350       O  0.99896285  0.26929683  0.54917075    -0.95400
O2351       O  0.05899667  0.32300708  0.51147909    -0.91200
O2352       O  0.06425740  0.31930213  0.95941616    -0.84300
C2353       C  0.05544668  0.33676147  0.48448295     1.10800
O2354       O  0.19224114  0.15611484  0.53233947    -0.97400
Zr2355     Zr  0.15620883  0.20426079  0.50461974     1.88900
O2356       O  0.15657140  0.28676753  0.95126669    -0.74000
O2357       O  0.09094323  0.30700954  0.56925805    -0.53300
O2358       O  0.18971364  0.23270230  0.54668936    -0.98000
O2359       O  0.20631521  0.17528370  0.97065970    -0.55200
O2360       O  0.19345392  0.25770692  0.98638970    -0.74600
C2361       C  0.18737546  0.28387653  0.96679963     0.97800
O2362       O  0.09826943  0.29580935  0.90416115    -0.63400
O2363       O  0.05582604  0.09906596  0.92300775    -0.58200
O2364       O  0.07832199  0.23263151  0.89902009    -0.94900
O2365       O  0.07308657  0.16808213  0.89949603    -0.93300
O2366       O  0.96852438  0.15073917  0.95790691    -0.93700
O2367       O  0.94679113  0.22351604  0.95067585    -0.92400
C2368       C  0.07199706  0.20058542  0.88577225     1.16600
H2369       H  0.02161462  0.12356418  0.98559780     0.32600
H2370       H  0.02115217  0.27747993  0.98183768     0.43400
H2371       H  0.15030919  0.20053927  0.93848376     0.36900
H2372       H  0.11852320  0.20391339  0.55996298     0.33400
H2373       H  0.93452603  0.24058294  0.51109459     0.25200
H2374       H  0.11587263  0.29644083  0.57560399     0.31200
H2375       H  0.17291312  0.25387608  0.55357061     0.37100
H2376       H  0.97962824  0.15164134  0.93718505     0.31500
H2377       H  0.05512220  0.07626788  0.93629377     0.30400
H2378       H  0.13796001  0.11057782  0.91060153     0.32100
H2379       H  0.20514958  0.14740565  0.97423796     0.31000
H2380       H  0.95800604  0.22205529  0.93001344     0.35000
H2381       H  0.07298559  0.30807181  0.90148804     0.27800
H2382       H  0.03117439  0.11376607  0.59178767     0.32000
H2383       H  0.18356059  0.15855426  0.55368040     0.34900
H2384       H  0.02886648  0.10738920  0.92178971     0.27500
H2385       H  0.11539922  0.31708481  0.90928938     0.40300
H2386       H  0.98808168  0.28205605  0.53124327     0.30400
H2387       H  0.94872393  0.26818858  0.48550878     0.38000
H2388       H  0.23086905  0.18322546  0.97936515     0.29900
H2389       H  0.09792097  0.32947915  0.55676856     0.29900
H2390       H  0.07499411  0.10387138  0.59048953     0.30200
Zr2391     Zr  0.05827808  0.15061066  0.78392611     2.17500
O2392       O  0.04522042  0.10478546  0.82467328    -0.52200
O2393       O  0.99425052  0.12210182  0.77302385    -0.75400
O2394       O  0.06169148  0.16993670  0.83788967    -0.82200
O2395       O  0.10674207  0.09349543  0.72473372    -0.83900
O2396       O  0.06329393  0.23481851  0.83965767    -0.79500
O2397       O  0.09571295  0.09252045  0.77558123    -0.91200
O2398       O  0.95951857  0.17345739  0.76117358    -0.77100
O2399       O  0.02001216  0.20694926  0.77894394    -0.86600
O2400       O  0.03838479  0.15031630  0.73209005    -0.86300
O2401       O  0.10138473  0.20371913  0.79205110    -0.73100
O2402       O  0.11490829  0.15436143  0.75151988    -0.85200
Zr2403     Zr  0.09510884  0.26354290  0.70345642     2.26400
Zr2404     Zr  0.06201767  0.25969212  0.78742902     2.06300
Zr2405     Zr  0.09409236  0.15478002  0.70042706     2.10000
Zr2406     Zr  0.00038408  0.20661317  0.72733036     1.78800
O2407       O  0.15482364  0.13957222  0.67549509    -0.94000
O2408       O  0.94854995  0.25095671  0.73954272    -0.41800
O2409       O  0.05494600  0.21007901  0.69497626    -0.78400
O2410       O  0.03904766  0.26051227  0.73626326    -0.97100
O2411       O  0.11709288  0.26328758  0.75443137    -0.90400
O2412       O  0.13506914  0.20842103  0.70774175    -0.93300
C2413       C  0.96275782  0.13779045  0.76440920     1.00500
C2414       C  0.10887987  0.07770479  0.75109207     1.13400
C2415       C  0.06429218  0.20169484  0.85250342     1.04200
O2416       O  0.00335331  0.28426986  0.81060332    -0.95400
O2417       O  0.05298474  0.32508744  0.76931872    -0.91200
O2418       O  0.06893408  0.32518811  0.71913757    -0.84300
C2419       C  0.05630703  0.34154718  0.74330837     1.10800
O2420       O  0.19086041  0.15858855  0.78627937    -0.97400
Zr2421     Zr  0.15604708  0.20784254  0.75885785     1.88900
O2422       O  0.16026692  0.29049644  0.70507885    -0.74000
O2423       O  0.10090101  0.30395784  0.81588885    -0.53300
O2424       O  0.18475150  0.22845963  0.80583213    -0.98000
O2425       O  0.21013866  0.18091171  0.73060234    -0.55200
O2426       O  0.19158143  0.26517354  0.74511669    -0.74600
C2427       C  0.18844206  0.28958182  0.72354882     0.97800
O2428       O  0.09594601  0.30869948  0.66103113    -0.63400
O2429       O  0.06736199  0.10660517  0.66741305    -0.58200
O2430       O  0.08325784  0.24159919  0.65054437    -0.94900
O2431       O  0.08129447  0.17679470  0.64922335    -0.93300
O2432       O  0.97602689  0.15894059  0.69275967    -0.93700
O2433       O  0.96530295  0.23463698  0.68593732    -0.92400
C2434       C  0.07902640  0.20965068  0.63629522     1.16600
H2435       H  0.02543511  0.12733538  0.72624525     0.32600
H2436       H  0.02117223  0.28105057  0.73301921     0.43400
H2437       H  0.15575211  0.20952056  0.69306622     0.36900
H2438       H  0.11349045  0.20189193  0.81140168     0.33400
H2439       H  0.92493974  0.23560542  0.73893651     0.25200
H2440       H  0.09322276  0.30069718  0.83739356     0.31200
H2441       H  0.18304299  0.25663830  0.80545081     0.37100
H2442       H  0.99525613  0.15764191  0.67610666     0.31500
H2443       H  0.08981500  0.09450164  0.65736813     0.30400
H2444       H  0.16307715  0.11513929  0.68471387     0.32100
H2445       H  0.21637343  0.19965980  0.71446166     0.31000
H2446       H  0.98450252  0.23655836  0.66932361     0.35000
H2447       H  0.09875003  0.33451995  0.66962376     0.27800
H2448       H  0.06958636  0.09133723  0.82866083     0.32000
H2449       H  0.17091243  0.14098975  0.79400019     0.34900
H2450       H  0.05697876  0.08661602  0.68106606     0.27500
H2451       H  0.12060673  0.30409342  0.65035568     0.40300
H2452       H  0.01054486  0.29149380  0.83136927     0.30400
H2453       H  0.95175777  0.25676500  0.76124998     0.38000
H2454       H  0.19979090  0.15862160  0.71991160     0.29900
H2455       H  0.12711600  0.29341903  0.81454276     0.29900
H2456       H  0.02867847  0.08511983  0.81581480     0.30200
Zr2457     Zr  0.35349922  0.44588666  0.90603456     2.17500
O2458       O  0.40282054  0.45388772  0.86684047    -0.52200
O2459       O  0.37871096  0.51325243  0.91126287    -0.75400
O2460       O  0.32849068  0.44148481  0.85313324    -0.82200
O2461       O  0.41440934  0.39191263  0.96183405    -0.83900
O2462       O  0.26369316  0.43736014  0.85327315    -0.79500
O2463       O  0.41461872  0.41373442  0.91311729    -0.91200
O2464       O  0.34873040  0.54144612  0.95120896    -0.77100
O2465       O  0.29689143  0.48223368  0.91422966    -0.86600
O2466       O  0.35621515  0.46354062  0.95818292    -0.86300
O2467       O  0.30180902  0.40090847  0.89927522    -0.73100
O2468       O  0.35290733  0.38893753  0.93789672    -0.85200
Zr2469     Zr  0.24673181  0.40346567  0.98956135     2.26400
Zr2470     Zr  0.24501712  0.43850524  0.90690592     2.06300
Zr2471     Zr  0.35540189  0.40761071  0.98973224     2.10000
Zr2472     Zr  0.29965450  0.50008277  0.96639775     1.78800
O2473       O  0.37353212  0.34826685  0.01482574    -0.94000
O2474       O  0.26903533  0.55470740  0.94215029    -0.41800
O2475       O  0.29932953  0.44477443  0.99737817    -0.78400
O2476       O  0.24689272  0.46047906  0.95828434    -0.97100
O2477       O  0.24489059  0.38270393  0.93833504    -0.90400
O2478       O  0.30272685  0.36501070  0.98291411    -0.93300
C2479       C  0.37398581  0.54112772  0.93035847     1.00500
C2480       C  0.42989270  0.39598690  0.93532106     1.13400
C2481       C  0.29623258  0.43768921  0.83936203     1.04200
O2482       O  0.21897720  0.49684457  0.88516498    -0.95400
O2483       O  0.18196930  0.44708393  0.93098576    -0.91200
O2484       O  0.18538403  0.43298003  0.98139182    -0.84300
C2485       C  0.16806227  0.44613947  0.95822554     1.10800
O2486       O  0.35137070  0.31699217  0.89977129    -0.97400
Zr2487     Zr  0.30107496  0.34550818  0.93123418     1.88900
O2488       O  0.21521217  0.34178062  0.98212965    -0.74000
O2489       O  0.20363851  0.39902966  0.87640326    -0.53300
O2490       O  0.27891771  0.31479546  0.88549609    -0.98000
O2491       O  0.32649240  0.29153240  0.95977177    -0.55200
O2492       O  0.24346293  0.30932657  0.94346705    -0.74600
C2493       C  0.21703874  0.31357760  0.96363978     0.97800
O2494       O  0.21206792  0.39065618  0.53870795    -0.63400
O2495       O  0.40617748  0.44832821  0.51036922    -0.58200
O2496       O  0.26959379  0.42035636  0.54228085    -0.94900
O2497       O  0.33450566  0.42205342  0.54170319    -0.93300
O2498       O  0.33521831  0.52145482  0.01000300    -0.93700
O2499       O  0.25380400  0.53073749  0.00066455    -0.92400
C2500       C  0.30176872  0.42552005  0.55545205     1.16600
H2501       H  0.37916565  0.47739584  0.96257117     0.32600
H2502       H  0.22739692  0.47912755  0.96285161     0.43400
H2503       H  0.30269735  0.34383520  0.99699735     0.36900
H2504       H  0.30284074  0.38891591  0.87973425     0.33400
H2505       H  0.28000025  0.55566389  0.92136168     0.25200
H2506       H  0.19625547  0.37744717  0.88974042     0.31200
H2507       H  0.25181838  0.32263702  0.88387318     0.37100
H2508       H  0.32616263  0.50537433  0.02710563     0.31500
H2509       H  0.39438609  0.46081047  0.52829458     0.30400
H2510       H  0.39257477  0.36553857  0.53513785     0.32100
H2511       H  0.35448348  0.29239697  0.95646786     0.31000
H2512       H  0.26421527  0.55648556  0.00421575     0.35000
H2513       H  0.18560257  0.39992165  0.53595505     0.27800
H2514       H  0.39375437  0.47489372  0.85365075     0.32000
H2515       H  0.36880819  0.33827678  0.89461198     0.34900
H2516       H  0.39604579  0.46119462  0.02535169     0.27500
H2517       H  0.21372925  0.36027786  0.03879282     0.40300
H2518       H  0.19692203  0.48831215  0.87327330     0.30400
H2519       H  0.24223380  0.54683202  0.93939380     0.38000
H2520       H  0.31817738  0.26873594  0.94855746     0.29900
H2521       H  0.17990946  0.41419730  0.87410964     0.29900
H2522       H  0.40182397  0.43072340  0.85414430     0.30200
Zr2523     Zr  0.35240703  0.44995848  0.65551148     2.17500
O2524       O  0.40345961  0.45580234  0.61735539    -0.52200
O2525       O  0.37831318  0.51663584  0.65813989    -0.75400
O2526       O  0.33198127  0.44070176  0.60236917    -0.82200
O2527       O  0.41269877  0.40904008  0.71644744    -0.83900
O2528       O  0.26726211  0.43696630  0.60138202    -0.79500
O2529       O  0.41380350  0.41940131  0.66557935    -0.91200
O2530       O  0.34164888  0.54971944  0.69185032    -0.77100
O2531       O  0.29449585  0.48612779  0.65970324    -0.86600
O2532       O  0.35111771  0.47344953  0.70641246    -0.86300
O2533       O  0.30153156  0.40341667  0.64992889    -0.73100
O2534       O  0.35208864  0.39580955  0.69004633    -0.85200
Zr2535     Zr  0.24302269  0.41281137  0.73905145     2.26400
Zr2536     Zr  0.24386628  0.44050913  0.65390005     2.06300
Zr2537     Zr  0.35110146  0.42033032  0.74031483     2.10000
Zr2538     Zr  0.29309257  0.50880391  0.71070259     1.78800
O2539       O  0.37584713  0.36349338  0.76549126    -0.94000
O2540       O  0.25275186  0.55044625  0.68034220    -0.41800
O2541       O  0.29396568  0.45697660  0.74591673    -0.78400
O2542       O  0.24183433  0.46660835  0.70415159    -0.97100
O2543       O  0.24388824  0.38777433  0.68869828    -0.90400
O2544       O  0.30004300  0.37538409  0.73555748    -0.93300
C2545       C  0.37041110  0.54670091  0.67404356     1.00500
C2546       C  0.42900808  0.40778632  0.69018335     1.13400
C2547       C  0.30037490  0.43579775  0.58828379     1.04200
O2548       O  0.21692493  0.49818992  0.63159500    -0.95400
O2549       O  0.17784924  0.44210266  0.67367790    -0.91200
O2550       O  0.18071352  0.43678568  0.72509371    -0.84300
C2551       C  0.16294625  0.44383606  0.70049903     1.10800
O2552       O  0.35084766  0.32313110  0.65301172    -0.97400
Zr2553     Zr  0.30101927  0.35116524  0.68524896     1.88900
O2554       O  0.21832503  0.34690640  0.73944239    -0.74000
O2555       O  0.20637277  0.40084451  0.62053609    -0.53300
O2556       O  0.28286280  0.30548794  0.64679610    -0.98000
O2557       O  0.33212946  0.30558303  0.71878016    -0.55200
O2558       O  0.24258313  0.31649095  0.69820171    -0.74600
C2559       C  0.21848756  0.31928595  0.72029127     0.97800
O2560       O  0.19149756  0.41240381  0.77693419    -0.63400
O2561       O  0.39874625  0.45820227  0.76596429    -0.58200
O2562       O  0.26510303  0.42538038  0.79178302    -0.94900
O2563       O  0.32973154  0.42997442  0.79246854    -0.93300
O2564       O  0.31899745  0.54990618  0.74938657    -0.93700
O2565       O  0.25237322  0.53909990  0.74893296    -0.92400
C2566       C  0.29690323  0.43080154  0.80578370     1.16600
H2567       H  0.37327301  0.48844706  0.71097533     0.32600
H2568       H  0.22057824  0.48393160  0.70680022     0.43400
H2569       H  0.30032465  0.35583989  0.75104407     0.36900
H2570       H  0.30335902  0.38989813  0.63105532     0.33400
H2571       H  0.23333707  0.56099533  0.69456784     0.25200
H2572       H  0.18833967  0.38691039  0.63397861     0.31200
H2573       H  0.26347785  0.31907847  0.63468217     0.37100
H2574       H  0.33350963  0.53241227  0.76266503     0.31500
H2575       H  0.38418043  0.47628485  0.77892622     0.30400
H2576       H  0.36250192  0.36252480  0.78539468     0.32100
H2577       H  0.35955834  0.31211721  0.71743328     0.31000
H2578       H  0.23680499  0.51808376  0.75754452     0.35000
H2579       H  0.19832562  0.39220542  0.79166920     0.27800
H2580       H  0.39581220  0.47708544  0.60386935     0.32000
H2581       H  0.35119629  0.33880709  0.63429104     0.34900
H2582       H  0.41084851  0.44019574  0.78031229     0.27500
H2583       H  0.19349382  0.43668265  0.78814713     0.40300
H2584       H  0.20091989  0.50959399  0.64790029     0.30400
H2585       H  0.26909023  0.57242368  0.67484452     0.38000
H2586       H  0.33028948  0.28081520  0.70825056     0.29900
H2587       H  0.19019202  0.41908420  0.60920964     0.29900
H2588       H  0.40255249  0.43262716  0.60465536     0.30200
Zr2589     Zr  0.04795069  0.46709689  0.00676169     2.17500
O2590       O  0.08396023  0.47420268  0.55616398    -0.52200
O2591       O  0.05032483  0.39782641  0.50361815    -0.75400
O2592       O  0.00965705  0.41509325  0.53758991    -0.82200
O2593       O  0.11981052  0.48811596  0.94353124    -0.83900
O2594       O  0.94892511  0.41846204  0.52152632    -0.79500
O2595       O  0.11361649  0.45761613  0.98887495    -0.91200
O2596       O  0.02342223  0.38797699  0.95704000    -0.77100
O2597       O  0.99575529  0.48653147  0.97806189    -0.86600
O2598       O  0.05139491  0.46389227  0.95301624    -0.86300
O2599       O  0.99673465  0.50211040  0.53584063    -0.73100
O2600       O  0.06402834  0.53119467  0.99568901    -0.85200
Zr2601     Zr  0.95952340  0.55387404  0.94236763     2.26400
Zr2602     Zr  0.93794426  0.48545988  0.51171164     2.06300
Zr2603     Zr  0.06496124  0.52972170  0.94103364     2.10000
Zr2604     Zr  0.99082580  0.44602863  0.93637108     1.78800
O2605       O  0.11989840  0.56705394  0.95588461    -0.94000
O2606       O  0.94649413  0.39801522  0.95454665    -0.41800
O2607       O  0.00529272  0.51001333  0.91992383    -0.78400
O2608       O  0.94097220  0.48874220  0.95415760    -0.97100
O2609       O  0.95211331  0.55423092  0.99629862    -0.90400
O2610       O  0.01862285  0.57098004  0.96366398    -0.93300
C2611       C  0.04354532  0.37774290  0.98011585     1.00500
C2612       C  0.13161107  0.46500773  0.96392270     1.13400
C2613       C  0.97621761  0.40096419  0.53454821     1.04200
O2614       O  0.88002003  0.44881349  0.50421833    -0.95400
O2615       O  0.88626913  0.53420002  0.00362395    -0.91200
O2616       O  0.89258597  0.55761204  0.95579661    -0.84300
C2617       C  0.87332895  0.55126441  0.98020639     1.10800
O2618       O  0.04923585  0.57838496  0.56392180    -0.97400
Zr2619     Zr  0.01229401  0.56996286  0.01672993     1.88900
O2620       O  0.94583144  0.61841662  0.95741385    -0.74000
O2621       O  0.92551844  0.49073418  0.56593328    -0.53300
O2622       O  0.96894800  0.57245951  0.56729628    -0.98000
O2623       O  0.04985371  0.62843671  0.01591454    -0.55200
O2624       O  0.97203556  0.62504939  0.00395960    -0.74600
C2625       C  0.95255306  0.63743250  0.98136911     0.97800
O2626       O  0.92523336  0.55210213  0.89480375    -0.63400
O2627       O  0.08736958  0.52512626  0.88864581    -0.58200
O2628       O  0.99260152  0.60001368  0.90995582    -0.94900
O2629       O  0.05642461  0.58812963  0.91217395    -0.93300
O2630       O  0.02144103  0.43109398  0.88796883    -0.93700
O2631       O  0.95062508  0.44247300  0.89202059    -0.92400
C2632       C  0.02765589  0.60856977  0.90424149     1.16600
H2633       H  0.06864252  0.44491902  0.94477421     0.32600
H2634       H  0.91630717  0.48259542  0.94608057     0.43400
H2635       H  0.02454921  0.59738024  0.95988857     0.36900
H2636       H  0.99639806  0.49838936  0.55750973     0.33400
H2637       H  0.94874079  0.37714745  0.93958857     0.25200
H2638       H  0.91095122  0.51487839  0.56823913     0.31200
H2639       H  0.95706071  0.59814048  0.56636304     0.37100
H2640       H  0.04609121  0.41905901  0.89329821     0.31500
H2641       H  0.11538896  0.52838236  0.88950448     0.30400
H2642       H  0.13166732  0.57581004  0.93657159     0.32100
H2643       H  0.04297442  0.64217431  0.99711500     0.31000
H2644       H  0.92424448  0.43989784  0.90012037     0.35000
H2645       H  0.90726514  0.57400793  0.89575748     0.27800
H2646       H  0.09231123  0.44815790  0.56198636     0.32000
H2647       H  0.06657123  0.55597350  0.56403273     0.34900
H2648       H  0.08389554  0.49798733  0.88330498     0.27500
H2649       H  0.94419039  0.55920512  0.87893705     0.40300
H2650       H  0.87443428  0.43666749  0.52407383     0.30400
H2651       H  0.92093127  0.40925816  0.95107983     0.38000
H2652       H  0.07645441  0.61980685  0.01210067     0.29900
H2653       H  0.90669146  0.47049468  0.57054788     0.29900
H2654       H  0.06523440  0.48157133  0.57212678     0.30200
Zr2655     Zr  0.96504152  0.56386495  0.75927735     2.17500
O2656       O  0.93503922  0.56478576  0.80934617    -0.52200
O2657       O  0.96675321  0.62857622  0.74383982    -0.75400
O2658       O  0.01272559  0.61079738  0.77489334    -0.82200
O2659       O  0.87843929  0.53472485  0.71367409    -0.83900
O2660       O  0.07099650  0.59302012  0.75656607    -0.79500
O2661       O  0.89635133  0.57848598  0.74829584    -0.91200
O2662       O  0.97402847  0.62870842  0.69283171    -0.77100
O2663       O  0.00744938  0.53406985  0.72502605    -0.86600
O2664       O  0.95030037  0.55886245  0.70728240    -0.86300
O2665       O  0.01534271  0.52290347  0.77857605    -0.73100
O2666       O  0.94296081  0.50005454  0.75783116    -0.85200
Zr2667     Zr  0.02997730  0.45692460  0.69037700     2.26400
Zr2668     Zr  0.06949694  0.52686453  0.74404175     2.06300
Zr2669     Zr  0.93092696  0.49378277  0.70452736     2.10000
Zr2670     Zr  0.00729176  0.56813135  0.67938456     1.78800
O2671       O  0.87559072  0.45891894  0.72361226    -0.94000
O2672       O  0.05466345  0.61467830  0.69467938    -0.41800
O2673       O  0.98534150  0.50388538  0.67201750    -0.78400
O2674       O  0.05562850  0.52131463  0.69179339    -0.97100
O2675       O  0.04953962  0.46330802  0.74190092    -0.90400
O2676       O  0.97599882  0.44880026  0.72283286    -0.93300
C2677       C  0.96346272  0.64430767  0.71801112     1.00500
C2678       C  0.87232824  0.56454005  0.72928632     1.13400
C2679       C  0.04857260  0.61651532  0.76977118     1.04200
O2680       O  0.11548485  0.57361614  0.72547295    -0.95400
O2681       O  0.11904892  0.48311123  0.72574311    -0.91200
O2682       O  0.09822899  0.44783279  0.68634159    -0.84300
C2683       C  0.12421920  0.45893463  0.70423712     1.10800
O2684       O  0.96047156  0.45774831  0.82238529    -0.97400
Zr2685     Zr  0.99407319  0.45757407  0.77369714     1.88900
O2686       O  0.04416038  0.39560294  0.71325387    -0.74000
O2687       O  0.10528941  0.51071684  0.78931583    -0.53300
O2688       O  0.03476515  0.45390416  0.81778207    -0.98000
O2689       O  0.94824206  0.40605637  0.78180824    -0.55200
O2690       O  0.02856031  0.39798361  0.76347922    -0.74600
C2691       C  0.04243205  0.38102093  0.73997853     0.97800
O2692       O  0.04870130  0.44710512  0.63758068    -0.63400
O2693       O  0.90690262  0.50784341  0.65417162    -0.58200
O2694       O  0.98341012  0.41339882  0.66829257    -0.94900
O2695       O  0.92335438  0.43643166  0.67721432    -0.93300
O2696       O  0.97041500  0.57373601  0.63350532    -0.93700
O2697       O  0.04396207  0.57163763  0.63221597    -0.92400
C2698       C  0.94668463  0.41147091  0.66706769     1.16600
H2699       H  0.93156859  0.57628427  0.69931525     0.32600
H2700       H  0.07829427  0.52405311  0.67923267     0.43400
H2701       H  0.96626752  0.42313935  0.72207656     0.36900
H2702       H  0.02162633  0.52924864  0.79913837     0.33400
H2703       H  0.07713090  0.60938039  0.68144532     0.25200
H2704       H  0.08740007  0.51460151  0.80658376     0.31200
H2705       H  0.04086067  0.42642393  0.82012365     0.37100
H2706       H  0.95032147  0.59282399  0.63844377     0.31500
H2707       H  0.88336873  0.49258591  0.65248617     0.30400
H2708       H  0.85594964  0.46226927  0.70794301     0.32100
H2709       H  0.95966925  0.38290570  0.77254231     0.31000
H2710       H  0.05290981  0.54519200  0.62851975     0.35000
H2711       H  0.02452434  0.44481769  0.62646554     0.27800
H2712       H  0.91053869  0.55133311  0.80685916     0.32000
H2713       H  0.93433568  0.46683936  0.81791823     0.34900
H2714       H  0.89773773  0.53460907  0.65512157     0.27500
H2715       H  0.05898030  0.47210965  0.63097489     0.40300
H2716       H  0.14040005  0.56014057  0.72570426     0.30400
H2717       H  0.04521988  0.63977649  0.68752401     0.38000
H2718       H  0.92651137  0.41258494  0.76867471     0.29900
H2719       H  0.10917244  0.48273181  0.78835015     0.29900
H2720       H  0.92748148  0.59181784  0.81215713     0.30200
C2721       C  0.03604158  0.64563377  0.88963570    -0.12800
C2722       C  0.01084692  0.66335636  0.86935186     0.02700
C2723       C  0.02283295  0.69586853  0.85372927    -0.13300
C2724       C  0.06139896  0.70674236  0.85394233     0.17500
C2725       C  0.08203938  0.69634141  0.87963396    -0.10400
C2726       C  0.07011300  0.66471512  0.89674109    -0.03300
H2727       H  0.00418083  0.70776974  0.83725085     0.04100
C2728       C  0.08159580  0.70719400  0.82376187     0.19500
H2729       H  0.08825845  0.65409404  0.91455392     0.09200
C2730       C  0.10813601  0.67740006  0.81949264    -0.16700
C2731       C  0.09975516  0.64811496  0.79947012     0.02200
C2732       C  0.06648963  0.65110469  0.78183528    -0.12000
C2733       C  0.04916762  0.68722391  0.77883171    -0.02100
C2734       C  0.05983535  0.71664876  0.79842529    -0.07200
H2735       H  0.12992376  0.67196349  0.83604799     0.05200
H2736       H  0.02672265  0.69185410  0.76264533     0.08600
Br2737     Br  0.12903213  0.72121200  0.88839399    -0.06900
Br2738     Br  0.96295770  0.64178997  0.85789589    -0.03900
Br2739     Br  0.13111980  0.60302450  0.80161005    -0.01000
Br2740     Br  0.03758669  0.76617692  0.79646369    -0.05400
C2741       C  0.96805396  0.36353259  0.54898317    -0.12800
C2742       C  0.93604411  0.34083206  0.54188937     0.02700
C2743       C  0.92347049  0.31290124  0.56242687    -0.13300
C2744       C  0.93957437  0.31078622  0.59114049     0.17500
C2745       C  0.97749686  0.32434178  0.59359708    -0.10400
C2746       C  0.99077363  0.35182695  0.57319315    -0.03300
H2747       H  0.89669461  0.29866056  0.55843060     0.04100
C2748       C  0.91280832  0.31745193  0.61727067     0.19500
H2749       H  0.01778912  0.36548648  0.57745046     0.09200
C2750       C  0.92765740  0.30999986  0.64593990    -0.16700
C2751       C  0.93831039  0.34094868  0.66380427     0.02200
C2752       C  0.92942210  0.37803632  0.65383098    -0.12000
C2753       C  0.90171642  0.38280875  0.63169252    -0.02100
C2754       C  0.89068962  0.35131049  0.61498862    -0.07200
H2755       H  0.93895136  0.28205795  0.65081580     0.05200
H2756       H  0.89001504  0.41078136  0.62661211     0.08600
Br2757     Br  0.01242905  0.30693410  0.62383733    -0.06900
Br2758     Br  0.90621404  0.34729909  0.50637144    -0.03900
Br2759     Br  0.96616358  0.33211265  0.70011319    -0.01000
Br2760     Br  0.85065160  0.35808106  0.58630227    -0.05400
C2761       C  0.43311734  0.14627075  0.78711086    -0.12800
C2762       C  0.45684868  0.16810327  0.80573529     0.02700
C2763       C  0.44647326  0.17025637  0.83646876    -0.13300
C2764       C  0.42073418  0.14241211  0.84710221     0.17500
C2765       C  0.38810512  0.14287781  0.82887255    -0.10400
C2766       C  0.39499347  0.14103257  0.79750972    -0.03300
H2767       H  0.46307373  0.18679787  0.85197034     0.04100
C2768       C  0.43821912  0.10259346  0.85128856     0.19500
H2769       H  0.37308665  0.13019364  0.78290293     0.09200
C2770       C  0.41526565  0.06970527  0.84770400    -0.16700
C2771       C  0.43047693  0.03261061  0.84828632     0.02200
C2772       C  0.46999659  0.02699921  0.85194481    -0.12000
C2773       C  0.49340126  0.05919398  0.85113963    -0.02100
C2774       C  0.47827501  0.09607392  0.85395011    -0.07200
H2775       H  0.38487741  0.07223435  0.84476584     0.05200
H2776       H  0.52365983  0.05529406  0.85332482     0.08600
Br2777     Br  0.33791447  0.13605162  0.84577441    -0.06900
Br2778     Br  0.50525348  0.18749485  0.79213383    -0.03900
Br2779     Br  0.39530715  0.99108507  0.84440800    -0.01000
Br2780     Br  0.51461150  0.13363203  0.86655454    -0.05400
C2781       C  0.58335553  0.88608233  0.66250946    -0.12800
C2782       C  0.57839855  0.84837200  0.65279407     0.02700
C2783       C  0.60323641  0.83404873  0.62991845    -0.13300
C2784       C  0.62663707  0.86092236  0.61461349     0.17500
C2785       C  0.64350494  0.88601213  0.63521078    -0.10400
C2786       C  0.61963222  0.90205074  0.65744673    -0.03300
H2787       H  0.59681147  0.80706573  0.61941147     0.04100
C2788       C  0.60668320  0.88261124  0.58969962     0.19500
H2789       H  0.62925184  0.92592490  0.67043610     0.09200
C2790       C  0.56638060  0.88251577  0.58941131    -0.16700
C2791       C  0.54566785  0.91460603  0.58109262     0.02200
C2792       C  0.56442958  0.94622691  0.56799705    -0.12000
C2793       C  0.60423744  0.94357842  0.56306026    -0.02100
C2794       C  0.62520342  0.91208072  0.57336313    -0.07200
H2795       H  0.55022879  0.85906838  0.59893519     0.05200
H2796       H  0.61923028  0.96557291  0.55041915     0.08600
Br2797     Br  0.69724279  0.89497344  0.63600653    -0.06900
Br2798     Br  0.54073841  0.81699838  0.67106227    -0.03900
Br2799     Br  0.49229757  0.91292201  0.59095156    -0.01000
Br2800     Br  0.67818234  0.90929178  0.56215454    -0.05400
loop_ 
_geom_bond_atom_site_label_1 
_geom_bond_atom_site_label_2 
_geom_bond_distance 
_geom_bond_site_symmetry_2 
_ccdc_geom_bond_type 
Zr1           O2   2.441       .  S
Zr1           O3   2.451       .  S
Zr1           O4   2.483       .  S
Zr1           O7   2.458       .  S
Zr1           O9   2.377       .  S
Zr1          O11   2.407       .  S
Zr1          O12   2.410       .  S
Zr1        O1410   2.395       .  S
O2           H58   0.990       .  S
O2           H66   0.990       .  S
O3           C23   1.284       .  A
O4           C25   1.294       .  A
O5          Zr15   2.450       .  S
O5           C24   1.289   1_554  A
O6          Zr14   2.404       .  S
O6           C25   1.277       .  A
O7         C1424   1.290       .  A
O8        Zr1416   2.415       .  S
O8           C23   1.281       .  A
O9          Zr14   2.393       .  S
O9        Zr1416   2.378       .  S
O10         Zr15   2.390   1_556  S
O10         Zr16   2.372       .  S
O10       Zr1401   2.397       .  S
O10          H45   0.965       .  S
O11         Zr14   2.397       .  S
O11         Zr31   2.396       .  S
O11          H48   0.966       .  S
O12         Zr31   2.382       .  S
O12       Zr1415   2.389       .  S
Zr13         O38   2.443       .  S
Zr13         O32   2.499       .  S
Zr13         O40   2.542       .  S
Zr13         O28   2.533       .  S
Zr13         O19   2.429       .  S
Zr13         O20   2.430   1_554  S
Zr13         O22   2.398       .  S
Zr13       O1421   2.398   1_554  S
Zr14         O33   2.442       .  S
Zr14         O26   2.432   1_545  S
Zr14         O27   2.393       .  S
Zr14         O21   2.404       .  S
Zr14       O1420   2.399       .  S
Zr15         O17   2.435       .  S
Zr15         O39   2.438       .  S
Zr15         O41   2.435       .  S
Zr15         O19   2.400       .  S
Zr15         O22   2.405       .  S
Zr15       O1412   2.396   1_554  S
Zr16         O42   2.437   1_556  S
Zr16         O43   2.435   1_546  S
Zr16       O1418   2.444   1_545  S
Zr16       O1408   2.426       .  S
Zr16         O19   2.405   1_556  S
Zr16         O20   2.377       .  S
Zr16       O1409   2.381       .  S
O17          H54   0.990       .  S
O18       Zr1416   2.440   1_565  S
O18          H63   0.990       .  S
O18        H1449   0.990       .  S
O20       Zr1414   2.408       .  S
O20          H46   0.961       .  S
O21         Zr31   2.383       .  S
O21       Zr1413   2.402       .  S
O22       Zr1431   2.376   1_554  S
O22          H47   0.966       .  S
C23         C293   1.464       .  S
C24        O1407   1.289       .  A
C24        C1569   1.480       .  S
C25          C91   1.481       .  S
O26          H62   0.990       .  S
O27          C29   1.274   1_545  A
O28        C1429   1.306   1_544  A
C29        O1428   1.305   1_565  A
C29         C684   1.497       .  S
O30         Zr31   2.435       .  S
O30          H59   0.990       .  S
Zr31         O34   2.427       .  S
Zr31       O1435   2.443       .  S
Zr31       O1436   2.404       .  S
Zr31       O1422   2.376       .  S
O32          C37   1.293       .  A
O33          H50   0.990       .  S
O33          H65   0.991       .  S
O34          H51   0.988       .  S
O35       Zr1431   2.441   1_554  S
O35          H64   0.990       .  S
O35        H1455   0.990       .  S
O36       Zr1431   2.414   1_554  S
O36          C37   1.281       .  A
C37         C947   1.497       .  S
O38          H57   0.990       .  S
O38          H61   0.990       .  S
O39          H53   0.990       .  S
O39          H60   0.990       .  S
O40          C44   1.306       .  A
O41          C44   1.284       .  A
O42          H52   0.988       .  S
O43          H56   0.990       .  S
C44         C110   1.518       .  S
H49        O1418   0.989       .  S
H55        O1435   0.990       .  S
Zr67         O68   2.444       .  S
Zr67         O69   2.511   1_545  S
Zr67         O70   2.491       .  S
Zr67         O73   2.449       .  S
Zr67         O75   2.391       .  S
Zr67         O76   2.397       .  S
Zr67         O77   2.424       .  S
Zr67         O78   2.427       .  S
O68         H124   0.990       .  S
O68         H132   0.991       .  S
O69          C89   1.297       .  A
O70          C91   1.294       .  A
O71         Zr81   2.494       .  S
O71          C90   1.299       .  A
O72         Zr80   2.428       .  S
O72          C91   1.281       .  A
O73          C90   1.282       .  A
O74         Zr82   2.342   1_565  S
O74          C89   1.267       .  A
O75         Zr80   2.411       .  S
O75         Zr82   2.397       .  S
O76         Zr81   2.390       .  S
O76         Zr82   2.396       .  S
O76         H111   0.965       .  S
O77         Zr80   2.404       .  S
O77         Zr97   2.380       .  S
O77         H114   0.962       .  S
O78         Zr81   2.386       .  S
O78         Zr97   2.403       .  S
Zr79        O104   2.440       .  S
Zr79         O98   2.450       .  S
Zr79        O106   2.521       .  S
Zr79         O94   2.464       .  S
Zr79         O85   2.382       .  S
Zr79         O86   2.421       .  S
Zr79         O87   2.396       .  S
Zr79         O88   2.398       .  S
Zr80         O99   2.444       .  S
Zr80         O92   2.435       .  S
Zr80         O93   2.427       .  S
Zr80         O86   2.397       .  S
Zr80         O87   2.393       .  S
Zr81         O83   2.438       .  S
Zr81        O105   2.437       .  S
Zr81        O107   2.481       .  S
Zr81         O85   2.387       .  S
Zr81         O88   2.408       .  S
Zr82        O108   2.433   1_545  S
Zr82        O109   2.439       .  S
Zr82         O84   2.442   1_545  S
Zr82         O85   2.363       .  S
Zr82         O86   2.346       .  S
O83         H120   0.989       .  S
O84         H115   0.990       .  S
O84         H129   0.990       .  S
O86         H112   0.963       .  S
O87         Zr97   2.368       .  S
O88         Zr97   2.391       .  S
O88         H113   0.965       .  S
C89         C750   1.470       .  S
C90        C1013   1.495       .  S
O92         H128   0.990       .  S
O93          C95   1.283       .  A
O94          C95   1.291       .  A
C95         C359   1.461       .  S
O96         Zr97   2.434       .  S
O96         H125   0.990       .  S
Zr97        O100   2.441       .  S
Zr97        O101   2.439       .  S
Zr97        O102   2.420       .  S
O98         C103   1.285       .  A
O99         H116   0.991       .  S
O99         H131   0.990       .  S
O100        H117   0.990       .  S
O101        H121   0.990       .  S
O101        H130   0.989       .  S
O102        C103   1.277       .  A
C103        C235   1.464       .  S
O104        H123   0.990       .  S
O104        H127   0.990       .  S
O105        H119   0.988       .  S
O105        H126   0.989       .  S
O106        C110   1.304       .  A
O107        C110   1.293       .  A
O108        H118   0.990   1_565  S
O109        H122   0.991       .  S
Zr133       O134   2.446       .  S
Zr133       O135   2.512       .  S
Zr133       O136   2.496       .  S
Zr133       O139   2.467       .  S
Zr133       O141   2.386       .  S
Zr133       O142   2.402       .  S
Zr133       O143   2.434       .  S
Zr133       O144   2.427       .  S
O134        H190   0.990       .  S
O134        H198   0.991       .  S
O135        C155   1.293       .  A
O136        C157   1.296       .  A
O137       Zr147   2.419       .  S
O137        C156   1.283       .  A
O138       Zr146   2.470       .  S
O138        C157   1.291       .  A
O139        C156   1.288       .  A
O140       Zr148   2.379       .  S
O140        C155   1.267       .  A
O141       Zr146   2.396       .  S
O141       Zr148   2.389       .  S
O142       Zr147   2.392       .  S
O142       Zr148   2.390       .  S
O142        H177   0.966       .  S
O143       Zr146   2.409       .  S
O143       Zr163   2.402       .  S
O143        H180   0.964       .  S
O144       Zr147   2.390       .  S
O144       Zr163   2.413       .  S
Zr145      O1570   2.443       .  S
Zr145       O160   2.442       .  S
Zr145      O1564   2.446       .  S
Zr145      O1572   2.487       .  S
Zr145       O151   2.383       .  S
Zr145       O152   2.420       .  S
Zr145       O153   2.395       .  S
Zr145       O154   2.389       .  S
Zr146       O165   2.437       .  S
Zr146       O158   2.433       .  S
Zr146       O159   2.465       .  S
Zr146       O152   2.416       .  S
Zr146       O153   2.395       .  S
Zr147      O1549   2.436       .  S
Zr147      O1571   2.443       .  S
Zr147      O1573   2.434       .  S
Zr147       O151   2.377       .  S
Zr147       O154   2.408       .  S
Zr148       O174   2.430       .  S
Zr148       O150   2.441       .  S
Zr148      O1575   2.438       .  S
Zr148       O151   2.376       .  S
Zr148       O152   2.371       .  S
O149      Zr1547   2.439   1_554  S
O149        H186   0.990       .  S
O150        H181   0.990       .  S
O150        H195   0.990       .  S
O152        H178   0.962       .  S
O153       Zr163   2.367       .  S
O154       Zr163   2.386       .  S
O154       H1579   0.966       .  S
C155       C1080   1.483       .  S
C156        C821   1.485       .  S
C157        C242   1.510       .  S
O158        H194   0.990       .  S
O159        C161   1.294       .  A
O160        C161   1.284       .  A
C161        C301   1.472       .  S
O162       Zr163   2.438       .  S
O162        H191   0.990       .  S
Zr163       O166   2.443       .  S
Zr163       O167   2.440       .  S
Zr163       O168   2.454       .  S
O164      Zr1545   2.449       .  S
O164       C1569   1.283   1_554  A
O165        H182   0.990       .  S
O165        H197   0.990       .  S
O166        H183   0.990       .  S
O167        H187   0.990       .  S
O167        H196   0.990       .  S
O168        C169   1.284       .  A
C169       O1564   1.283       .  A
C169       C1424   1.484       .  S
O170      Zr1545   2.445       .  S
O170        H189   0.991       .  S
O170        H193   0.990       .  S
O171      Zr1547   2.442   1_554  S
O171        H185   0.990       .  S
O171        H192   0.990       .  S
O172      Zr1545   2.462       .  S
O172        C176   1.291       .  A
O173      Zr1547   2.435   1_554  S
O173        C176   1.284       .  A
O174        H184   0.988       .  S
O175      Zr1548   2.438   1_554  S
O175       H1588   0.990       .  S
C176        C223   1.479       .  S
H179       O1554   0.965   1_554  S
H188       O1575   0.990       .  S
Zr199       O200   2.446       .  S
Zr199       O201   2.500       .  S
Zr199       O202   2.481       .  S
Zr199       O205   2.438       .  S
Zr199       O207   2.378       .  S
Zr199       O208   2.407       .  S
Zr199       O209   2.420       .  S
Zr199       O210   2.418       .  S
O200        H256   0.991       .  S
O200        H264   0.990       .  S
O201        C221   1.293       .  A
O202        C223   1.292       .  A
O203       Zr213   2.460       .  S
O203        C222   1.295       .  A
O204       Zr212   2.409       .  S
O204        C223   1.280       .  A
O205        C222   1.279       .  A
O206       Zr214   2.342       .  S
O206        C221   1.268       .  A
O207       Zr212   2.393       .  S
O207       Zr214   2.386       .  S
O208       Zr213   2.389       .  S
O208       Zr214   2.393       .  S
O208        H243   0.965       .  S
O209       Zr212   2.384       .  S
O209       Zr229   2.393       .  S
O209        H246   0.964       .  S
O210       Zr213   2.374       .  S
O210       Zr229   2.377       .  S
Zr211       O236   2.447       .  S
Zr211       O230   2.453       .  S
Zr211       O238   2.509       .  S
Zr211       O226   2.472       .  S
Zr211       O217   2.389       .  S
Zr211       O218   2.417       .  S
Zr211       O219   2.389       .  S
Zr211       O220   2.399       .  S
Zr212       O231   2.437       .  S
Zr212       O224   2.436       .  S
Zr212       O225   2.393       .  S
Zr212       O218   2.409       .  S
Zr212       O219   2.391       .  S
Zr213       O215   2.437       .  S
Zr213       O237   2.440       .  S
Zr213       O239   2.458       .  S
Zr213       O217   2.386       .  S
Zr213       O220   2.404       .  S
Zr214       O240   2.435       .  S
Zr214       O241   2.440       .  S
Zr214       O216   2.438       .  S
Zr214       O217   2.375       .  S
Zr214       O218   2.364       .  S
O215        H252   0.990       .  S
O216        H247   0.990       .  S
O216        H261   0.990       .  S
O218        H244   0.963       .  S
O219       Zr229   2.374       .  S
O220       Zr229   2.388       .  S
O220        H245   0.966       .  S
C221       C1146   1.462       .  S
C222        C881   1.473       .  S
O224        H260   0.990       .  S
O225        C227   1.277       .  A
O226        C227   1.294       .  A
C227        C367   1.462       .  S
O228       Zr229   2.438       .  S
O228        H257   0.990       .  S
Zr229       O232   2.436       .  S
Zr229       O233   2.439       .  S
Zr229       O234   2.414       .  S
O230        C235   1.286       .  A
O231        H248   0.989       .  S
O231        H263   0.990       .  S
O232        H249   0.990       .  S
O233        H253   0.990       .  S
O233        H262   0.990       .  S
O234        C235   1.278       .  A
O236        H255   0.990       .  S
O236        H259   0.990       .  S
O237        H251   0.990       .  S
O237        H258   0.990       .  S
O238        C242   1.299       .  A
O239        C242   1.290       .  A
O240        H250   0.990       .  S
O241        H254   0.989       .  S
Zr265       O266   2.434       .  S
Zr265       O267   2.453       .  S
Zr265       O268   2.457       .  S
Zr265       O271   2.399       .  S
Zr265       O273   2.399       .  S
Zr265       O274   2.385       .  S
Zr265       O275   2.395   1_565  S
Zr265       O276   2.429   1_565  S
O266        H322   0.990       .  S
O266        H330   0.990   1_565  S
O267        C287   1.286       .  A
O268        C289   1.286   1_565  A
O269      Zr1679   2.438       .  S
O269        C288   1.282       .  A
O270       Zr278   2.458       .  S
O270        C289   1.285       .  A
O271        C288   1.280       .  A
O272       Zr280   2.430       .  S
O272        C287   1.283       .  A
O273       Zr278   2.417   1_565  S
O273       Zr280   2.363       .  S
O274       Zr280   2.387       .  S
O274      Zr1679   2.402       .  S
O274        H309   0.965       .  S
O275       Zr278   2.426       .  S
O275       Zr295   2.352       .  S
O275        H312   0.909       .  S
O276       Zr295   2.401       .  S
O276      Zr1679   2.397   1_545  S
Zr277       O302   2.446   1_556  S
Zr277       O296   2.490       .  S
Zr277       O304   2.461   1_556  S
Zr277      O1692   2.393       .  S
Zr277       O283   2.384   1_546  S
Zr277      O1684   2.465   1_545  S
Zr277      O1686   2.392   1_556  S
Zr277      O1685   2.299       .  S
Zr278       O297   2.438       .  S
Zr278       O290   2.450   1_545  S
Zr278       O291   2.492       .  S
Zr278       O284   2.378   1_545  S
Zr278       O285   2.327       .  S
Zr279       O281   2.439   1_565  S
Zr279       O303   2.433       .  S
Zr279       O305   2.471       .  S
Zr279      O1669   2.467       .  S
Zr279       O283   2.346       .  S
Zr279      O1674   2.409   1_554  S
Zr279      O1676   2.395   1_564  S
Zr279      O1686   2.408   1_565  S
Zr280       O282   2.440       .  S
Zr280      O1706   2.433       .  S
Zr280      O1707   2.438       .  S
Zr280       O284   2.422       .  S
Zr280      O1683   2.363       .  S
O281        H318   0.990       .  S
O282        H313   0.991       .  S
O282        H327   0.990       .  S
O283      Zr1680   2.341   1_554  S
O284      Zr1677   2.441   1_565  S
O284        H310   0.964       .  S
O285       Zr295   2.323       .  S
O285      Zr1677   2.279       .  S
O286       Zr295   2.370       .  S
O286      Zr1677   2.382       .  S
O286      Zr1679   2.414   1_545  S
O286       H1711   0.965       .  S
C287        C425   1.470       .  S
C288        C557   1.458       .  S
C289       C1372   1.494       .  S
O290        H326   0.991       .  S
O291        C293   1.292       .  A
O292      Zr1677   2.374       .  S
O292        C293   1.274       .  A
O294       Zr295   2.451       .  S
O294        H323   0.990       .  S
Zr295       O298   2.447       .  S
Zr295       O299   2.451       .  S
Zr295       O300   2.392       .  S
O296       C1701   1.293       .  A
O297        H314   0.990       .  S
O297        H329   0.990       .  S
O298        H315   0.990       .  S
O299        H319   0.991       .  S
O299        H328   0.990       .  S
O300        C301   1.274       .  A
C301       O1696   1.290       .  A
O302        H321   0.990       .  S
O302        H325   0.991       .  S
O303        H317   0.990       .  S
O303        H324   0.990       .  S
O304        C308   1.291   1_545  A
O305        C308   1.293       .  A
O306      Zr1680   2.430   1_554  S
O306        H316   0.990       .  S
O307      Zr1680   2.434       .  S
O307        H320   0.991   1_556  S
C308       C1392   1.486       .  S
H311       O1686   0.964       .  S
Zr331       O332   2.425       .  S
Zr331       O333   2.328       .  S
Zr331       O334   2.495       .  S
Zr331       O337   2.542       .  S
Zr331       O339   2.350       .  S
Zr331       O340   2.376       .  S
Zr331       O341   2.434       .  S
Zr331       O342   2.376   1_565  S
O332        H388   0.989       .  S
O332        H396   0.990       .  S
O333        C353   1.262       .  A
O334        C355   1.290       .  A
O335       Zr345   2.383   1_565  S
O335        C354   1.276       .  A
O336       Zr344   2.382       .  S
O336        C355   1.260       .  A
O337        C354   1.306       .  A
O338       Zr346   2.555       .  S
O338        C353   1.308       .  A
O339       Zr344   2.357       .  S
O339       Zr346   2.339       .  S
O340       Zr345   2.427   1_565  S
O340       Zr346   2.322       .  S
O340        H375   0.962       .  S
O341       Zr344   2.424       .  S
O341       Zr361   2.426   1_565  S
O341        H378   0.966       .  S
O342       Zr345   2.398       .  S
O342       Zr361   2.428       .  S
Zr343       O368   2.437       .  S
Zr343       O362   2.388       .  S
Zr343       O370   2.457       .  S
Zr343       O358   2.421       .  S
Zr343       O349   2.417       .  S
Zr343       O350   2.428   1_545  S
Zr343       O351   2.390       .  S
Zr343       O352   2.376       .  S
Zr344       O363   2.442       .  S
Zr344       O356   2.437       .  S
Zr344       O357   2.444   1_565  S
Zr344       O350   2.380       .  S
Zr344       O351   2.341   1_565  S
Zr345       O347   2.438       .  S
Zr345       O369   2.439       .  S
Zr345       O371   2.418       .  S
Zr345       O349   2.417       .  S
Zr345       O352   2.368       .  S
Zr346       O372   2.432       .  S
Zr346       O373   2.432       .  S
Zr346       O348   2.442       .  S
Zr346       O349   2.426   1_565  S
Zr346       O350   2.423       .  S
O347        H384   0.991       .  S
O348        H379   0.990       .  S
O348        H393   0.990       .  S
O350        H376   0.966       .  S
O351       Zr361   2.372       .  S
O352       Zr361   2.371       .  S
O352        H377   0.964       .  S
C353        C491   1.486       .  S
C354        C623   1.479       .  S
C355       C1381   1.481       .  S
O356        H392   0.990       .  S
O357        C359   1.286       .  A
O358        C359   1.282       .  A
O360       Zr361   2.440       .  S
O360        H389   0.990       .  S
Zr361       O364   2.440       .  S
Zr361       O365   2.441       .  S
Zr361       O366   2.460       .  S
O362        C367   1.276       .  A
O363        H380   0.988   1_565  S
O363        H395   0.990       .  S
O364        H381   0.990       .  S
O365        H385   0.990       .  S
O365        H394   0.990       .  S
O366        C367   1.292       .  A
O368        H387   0.990       .  S
O368        H391   0.990       .  S
O369        H383   0.990       .  S
O369        H390   0.988       .  S
O370        C374   1.289       .  A
O371        C374   1.281       .  A
O372        H382   0.990       .  S
O373        H386   0.990       .  S
C374       C1361   1.485       .  S
Zr397       O398   2.445       .  S
Zr397       O399   2.477       .  S
Zr397       O400   2.460       .  S
Zr397       O403   2.428       .  S
Zr397       O405   2.394       .  S
Zr397       O406   2.414       .  S
Zr397       O407   2.434       .  S
Zr397       O408   2.412       .  S
O398        H454   0.990       .  S
O398        H462   0.990       .  S
O399        C419   1.277       .  A
O400        C421   1.287       .  A
O401       Zr411   2.477       .  S
O401        C420   1.297       .  A
O402       Zr410   2.442       .  S
O402        C421   1.288       .  A
O403        C420   1.279       .  A
O404       Zr412   2.379       .  S
O404        C419   1.261       .  A
O405       Zr410   2.396       .  S
O405       Zr412   2.384       .  S
O406       Zr411   2.401       .  S
O406       Zr412   2.397       .  S
O406        H441   0.966       .  S
O407       Zr410   2.405       .  S
O407       Zr427   2.386       .  S
O407        H444   0.963       .  S
O408       Zr411   2.375       .  S
O408       Zr427   2.379       .  S
Zr409       O434   2.444       .  S
Zr409       O428   2.473       .  S
Zr409       O436   2.525       .  S
Zr409       O424   2.458       .  S
Zr409       O415   2.390       .  S
Zr409       O416   2.416       .  S
Zr409       O417   2.394       .  S
Zr409       O418   2.392       .  S
Zr410       O429   2.440       .  S
Zr410       O422   2.435       .  S
Zr410       O423   2.453       .  S
Zr410       O416   2.417       .  S
Zr410       O417   2.396       .  S
Zr411       O413   2.436       .  S
Zr411       O435   2.440       .  S
Zr411       O437   2.471       .  S
Zr411       O415   2.398       .  S
Zr411       O418   2.407       .  S
Zr412       O438   2.422       .  S
Zr412       O439   2.436       .  S
Zr412       O414   2.445       .  S
Zr412       O415   2.386       .  S
Zr412       O416   2.367       .  S
O413        H450   0.990       .  S
O414        H445   0.990       .  S
O414        H459   0.990       .  S
O416        H442   0.962       .  S
O417       Zr427   2.377       .  S
O418       Zr427   2.387       .  S
O418        H443   0.966       .  S
C419        C829   1.473       .  S
C420       C1079   1.475       .  S
C421        C506   1.476       .  S
O422        H458   0.990       .  S
O423        C425   1.287       .  A
O424        C425   1.290       .  A
O426       Zr427   2.439       .  S
O426        H455   0.991       .  S
Zr427       O430   2.435       .  S
Zr427       O431   2.436       .  S
Zr427       O432   2.425       .  S
O428        C433   1.291       .  A
O429        H446   0.990       .  S
O429        H461   0.991       .  S
O430        H447   0.990       .  S
O431        H451   0.991       .  S
O431        H460   0.989       .  S
O432        C433   1.281       .  A
C433        C565   1.480       .  S
O434        H453   0.989       .  S
O434        H457   0.990       .  S
O435        H449   0.990       .  S
O435        H456   0.989       .  S
O436       C1840   1.303       .  A
O437       C1840   1.293       .  A
O438        H448   0.990       .  S
O439        H452   0.990       .  S
C440       O1836   1.299       .  A
C440       O1837   1.292       .  A
C440        C487   1.514       .  S
Zr463       O464   2.442       .  S
Zr463       O465   2.498       .  S
Zr463       O466   2.498       .  S
Zr463       O469   2.480       .  S
Zr463       O471   2.414       .  S
Zr463       O472   2.415       .  S
Zr463       O473   2.434       .  S
Zr463       O474   2.405       .  S
O464        H520   0.990       .  S
O464        H528   0.990       .  S
O465        C485   1.286       .  A
O466        C487   1.297       .  A
O467       Zr477   2.430       .  S
O467        C486   1.288       .  A
O468       Zr476   2.484       .  S
O468        C487   1.294       .  A
O469        C486   1.290       .  A
O470       Zr478   2.369       .  S
O470        C485   1.261       .  A
O471       Zr476   2.423       .  S
O471       Zr478   2.407       .  S
O472       Zr477   2.381       .  S
O472       Zr478   2.381       .  S
O472        H507   0.965       .  S
O473       Zr476   2.410       .  S
O473       Zr493   2.393       .  S
O473        H510   0.963       .  S
O474       Zr477   2.378       .  S
O474       Zr493   2.372       .  S
Zr475       O500   2.447       .  S
Zr475       O494   2.468       .  S
Zr475       O502   2.448       .  S
Zr475       O490   2.428       .  S
Zr475       O481   2.388       .  S
Zr475       O482   2.427       .  S
Zr475       O483   2.391       .  S
Zr475       O484   2.390       .  S
Zr476       O495   2.438       .  S
Zr476       O488   2.435       .  S
Zr476       O489   2.519       .  S
Zr476       O482   2.399       .  S
Zr476       O483   2.382       .  S
Zr477       O479   2.436       .  S
Zr477       O501   2.441       .  S
Zr477       O503   2.436       .  S
Zr477       O481   2.377       .  S
Zr477       O484   2.406       .  S
Zr478       O504   2.434       .  S
Zr478       O505   2.438       .  S
Zr478       O480   2.444       .  S
Zr478       O481   2.370       .  S
Zr478       O482   2.351       .  S
O479        H516   0.990       .  S
O480        H511   0.990       .  S
O480        H525   0.990       .  S
O482        H508   0.960       .  S
O483       Zr493   2.383       .  S
O484       Zr493   2.391       .  S
O484        H509   0.966       .  S
C485        C882   1.478       .  S
C486       C1145   1.471       .  S
O488        H524   0.990       .  S
O489        C491   1.307       .  A
O490        C491   1.279       .  A
O492       Zr493   2.439       .  S
O492        H521   0.990       .  S
Zr493       O496   2.436       .  S
Zr493       O497   2.440       .  S
Zr493       O498   2.399       .  S
O494        C499   1.289       .  A
O495        H512   0.990       .  S
O495        H527   0.990       .  S
O496        H513   0.989       .  S
O497        H517   0.990       .  S
O497        H526   0.990       .  S
O498        C499   1.276       .  A
C499        C631   1.464       .  S
O500        H519   0.990       .  S
O500        H523   0.992       .  S
O501        H515   0.990       .  S
O501        H522   0.990       .  S
O502        C506   1.284       .  A
O503        C506   1.284       .  A
O504        H514   0.990       .  S
O505        H518   0.991       .  S
Zr529       O530   2.447       .  S
Zr529       O531   2.490   1_565  S
Zr529       O532   2.483       .  S
Zr529       O535   2.419       .  S
Zr529       O537   2.386       .  S
Zr529       O539   2.429       .  S
Zr529      O1938   2.402   1_554  S
Zr529      O1940   2.429   1_554  S
O530        H586   0.991       .  S
O530        H594   0.991       .  S
O531        C551   1.289       .  A
O532        C553   1.292       .  A
O533       Zr543   2.450       .  S
O533        C552   1.293       .  A
O534       Zr542   2.438       .  S
O534        C553   1.286       .  A
O535       C1952   1.277   1_554  A
O536      Zr1944   2.356       .  S
O536        C551   1.271   1_556  A
O537       Zr542   2.398       .  S
O537      Zr1944   2.396   1_564  S
O538       Zr543   2.383       .  S
O538       Zr544   2.381   1_565  S
O538      Zr1929   2.398       .  S
O538        H573   0.965       .  S
O539       Zr542   2.394       .  S
O539      Zr1959   2.398   1_554  S
O539        H576   0.963       .  S
O540       Zr543   2.392       .  S
O540       Zr559   2.400       .  S
O540      Zr1929   2.426       .  S
Zr541       O566   2.440       .  S
Zr541       O560   2.466       .  S
Zr541       O568   2.509       .  S
Zr541       O556   2.422       .  S
Zr541       O547   2.389       .  S
Zr541       O548   2.423       .  S
Zr541       O549   2.392       .  S
Zr541       O550   2.385       .  S
Zr542       O561   2.435       .  S
Zr542       O554   2.434       .  S
Zr542       O555   2.417       .  S
Zr542      O1948   2.412   1_554  S
Zr542      O1949   2.389   1_554  S
Zr543       O545   2.435       .  S
Zr543       O567   2.438       .  S
Zr543       O569   2.465       .  S
Zr543       O547   2.381       .  S
Zr543       O550   2.406       .  S
Zr544       O570   2.438       .  S
Zr544       O571   2.435       .  S
Zr544      O1946   2.437       .  S
Zr544      O1936   2.350       .  S
Zr544       O547   2.383   1_545  S
Zr544       O548   2.344   1_545  S
Zr544      O1937   2.393   1_545  S
O545        H582   0.990       .  S
O546      Zr1944   2.439   1_554  S
O546        H591   0.990       .  S
O546       H1977   0.990   1_554  S
O548      Zr1942   2.411       .  S
O548        H574   0.963       .  S
O549       Zr559   2.363       .  S
O549      Zr1942   2.398       .  S
O550       Zr559   2.394       .  S
O550        H575   0.966       .  S
C551        C948   1.456       .  S
C552       O1935   1.278       .  A
C552       C2083   1.467       .  S
C553        C638   1.489       .  S
O554        H590   0.990   1_565  S
O555       C1957   1.281   1_554  A
O556        C557   1.284       .  A
C557       O1955   1.287       .  A
O558      Zr1959   2.439   1_554  S
O558        H587   0.991       .  S
Zr559       O563   2.440       .  S
Zr559      O1958   2.438       .  S
Zr559      O1962   2.438       .  S
Zr559       O564   2.433       .  S
Zr559      O1939   2.396       .  S
O560        C565   1.290       .  A
O561        H578   0.990       .  S
O561        H593   0.990       .  S
O562      Zr1959   2.438   1_554  S
O562        H579   0.991       .  S
O563        H583   0.989       .  S
O563        H592   0.991       .  S
O564        C565   1.281       .  A
O566        H585   0.991       .  S
O566        H589   0.990       .  S
O567        H581   0.991       .  S
O567        H588   0.990       .  S
O568        C572   1.298       .  A
O569        C572   1.291       .  A
O570        H580   0.990       .  S
O571        H584   0.990       .  S
C572        C619   1.519       .  S
H577       O1946   0.990       .  S
Zr595       O596   2.441       .  S
Zr595       O597   2.518   1_565  S
Zr595       O598   2.497       .  S
Zr595       O601   2.462       .  S
Zr595       O603   2.389       .  S
Zr595       O604   2.395       .  S
Zr595       O605   2.431       .  S
Zr595       O606   2.422       .  S
O596        H652   0.990       .  S
O596        H660   0.990       .  S
O597        C617   1.296       .  A
O598        C619   1.298       .  A
O599       Zr609   2.457       .  S
O599        C618   1.292       .  A
O600       Zr608   2.501       .  S
O600        C619   1.299       .  A
O601        C618   1.286       .  A
O602       Zr610   2.346   1_545  S
O602        C617   1.269       .  A
O603       Zr608   2.416       .  S
O603       Zr610   2.384       .  S
O604       Zr609   2.400       .  S
O604       Zr610   2.384       .  S
O604        H639   0.966       .  S
O605       Zr608   2.412       .  S
O605       Zr625   2.384       .  S
O605        H642   0.962       .  S
O606       Zr609   2.388       .  S
O606       Zr625   2.395       .  S
Zr607       O632   2.449       .  S
Zr607       O626   2.446       .  S
Zr607       O634   2.457       .  S
Zr607       O622   2.432       .  S
Zr607       O613   2.388       .  S
Zr607       O614   2.419       .  S
Zr607       O615   2.383       .  S
Zr607       O616   2.392       .  S
Zr608       O627   2.437       .  S
Zr608       O620   2.435       .  S
Zr608       O621   2.507       .  S
Zr608       O614   2.406       .  S
Zr608       O615   2.391       .  S
Zr609       O611   2.437       .  S
Zr609       O633   2.439       .  S
Zr609       O635   2.468       .  S
Zr609       O613   2.379       .  S
Zr609       O616   2.411       .  S
Zr610       O636   2.434   1_565  S
Zr610       O637   2.436   1_565  S
Zr610       O612   2.442   1_565  S
Zr610       O613   2.372       .  S
Zr610       O614   2.346       .  S
O611        H648   0.990       .  S
O612        H643   0.991       .  S
O612        H657   0.990       .  S
O614        H640   0.962       .  S
O615       Zr625   2.374       .  S
O616       Zr625   2.390       .  S
O616        H641   0.966       .  S
C617       C1014   1.480       .  S
C618        C749   1.480       .  S
O620        H656   0.989       .  S
O621        C623   1.304       .  A
O622        C623   1.280       .  A
O624       Zr625   2.437       .  S
O624        H653   0.990       .  S
Zr625       O628   2.435       .  S
Zr625       O629   2.438       .  S
Zr625       O630   2.422       .  S
O626        C631   1.283       .  A
O627        H644   0.991       .  S
O627        H659   0.990       .  S
O628        H645   0.990       .  S
O629        H649   0.990       .  S
O629        H658   0.990       .  S
O630        C631   1.279       .  A
O632        H651   0.990       .  S
O632        H655   0.990       .  S
O633        H647   0.990       .  S
O633        H654   0.990       .  S
O634        C638   1.290       .  A
O635        C638   1.290       .  A
O636        H646   0.990       .  S
O637        H650   0.991       .  S
Zr661       O662   2.445       .  S
Zr661       O663   2.532   1_655  S
Zr661       O664   2.506       .  S
Zr661       O667   2.446       .  S
Zr661       O669   2.384       .  S
Zr661       O671   2.431       .  S
Zr661      O2070   2.390   1_554  S
Zr661      O2072   2.435   1_554  S
O662        H718   0.990       .  S
O662        H726   0.991       .  S
O663        C683   1.302   1_554  A
O664        C685   1.296       .  A
O665       Zr675   2.503       .  S
O665        C684   1.300       .  A
O666       Zr674   2.433       .  S
O666        C685   1.283       .  A
O667       C2084   1.284   1_554  A
O668      Zr2076   2.328       .  S
O668        C683   1.266       .  A
O669       Zr674   2.396       .  S
O669      Zr2076   2.396   1_654  S
O670       Zr675   2.378       .  S
O670       Zr676   2.401   1_655  S
O670      Zr2061   2.393       .  S
O670        H705   0.965       .  S
O671       Zr674   2.389       .  S
O671      Zr2091   2.393   1_554  S
O671        H708   0.962       .  S
O672       Zr675   2.386       .  S
O672       Zr691   2.432       .  S
O672      Zr2061   2.444       .  S
Zr673       O698   2.432       .  S
Zr673       O692   2.439       .  S
Zr673       O700   2.497       .  S
Zr673       O688   2.474       .  S
Zr673       O679   2.390       .  S
Zr673       O680   2.409       .  S
Zr673       O681   2.388       .  S
Zr673       O682   2.399       .  S
Zr674       O693   2.441       .  S
Zr674       O686   2.436       .  S
Zr674       O687   2.410       .  S
Zr674      O2080   2.411   1_554  S
Zr674      O2081   2.391   1_554  S
Zr675       O677   2.436       .  S
Zr675       O699   2.438       .  S
Zr675       O701   2.462       .  S
Zr675       O679   2.401       .  S
Zr675       O682   2.406       .  S
Zr676       O702   2.435       .  S
Zr676       O703   2.441       .  S
Zr676       O678   2.438       .  S
Zr676      O2068   2.331       .  S
Zr676       O679   2.365   1_455  S
Zr676       O680   2.351   1_455  S
Zr676      O2069   2.392   1_455  S
O677        H714   0.990       .  S
O678        H709   0.990       .  S
O678       H2123   0.990       .  S
O680      Zr2074   2.416       .  S
O680        H706   0.964       .  S
O681       Zr691   2.362       .  S
O681      Zr2074   2.394       .  S
O682       Zr691   2.375       .  S
O682        H707   0.966       .  S
C683       C1952   1.467       .  S
C684       O2067   1.277       .  A
C685        C770   1.495       .  S
O686        H722   0.991   1_655  S
O687       C2089   1.282   1_554  A
O688        C689   1.293       .  A
C689       O2087   1.281       .  A
C689       C1225   1.468       .  S
O690      Zr2091   2.438   1_554  S
O690        H719   0.991       .  S
Zr691       O695   2.443       .  S
Zr691      O2090   2.440       .  S
Zr691      O2094   2.436       .  S
Zr691       O696   2.480       .  S
Zr691      O2071   2.409       .  S
O692        C697   1.282       .  A
O693        H710   0.990       .  S
O693        H725   0.991       .  S
O694      Zr2091   2.437   1_554  S
O694        H711   0.990       .  S
O695        H715   0.990       .  S
O695        H724   0.990       .  S
O696        C697   1.291       .  A
C697        C816   1.493       .  S
O698        H717   0.990       .  S
O698        H721   0.990       .  S
O699        H713   0.990       .  S
O699        H720   0.990       .  S
O700        C704   1.297       .  A
O701        C704   1.292       .  A
O702        H712   0.990       .  S
O703        H716   0.990       .  S
C704        C751   1.508       .  S
H723       O2078   0.990       .  S
Zr727       O728   2.443       .  S
Zr727       O729   2.510   1_655  S
Zr727       O730   2.481       .  S
Zr727       O733   2.438       .  S
Zr727       O735   2.383       .  S
Zr727       O736   2.407       .  S
Zr727       O737   2.427       .  S
Zr727       O738   2.417       .  S
O728        H784   0.990       .  S
O728        H792   0.990       .  S
O729        C749   1.292       .  A
O730        C751   1.293       .  A
O731       Zr741   2.466       .  S
O731        C750   1.297       .  A
O732       Zr740   2.478       .  S
O732        C751   1.292       .  A
O733        C750   1.281       .  A
O734       Zr742   2.377       .  S
O734        C749   1.268       .  A
O735       Zr740   2.416       .  S
O735       Zr742   2.404   1_655  S
O736       Zr741   2.388       .  S
O736       Zr742   2.373   1_655  S
O736        H771   0.965       .  S
O737       Zr740   2.393       .  S
O737       Zr757   2.404       .  S
O737        H774   0.963       .  S
O738       Zr741   2.374       .  S
O738       Zr757   2.375       .  S
Zr739       O764   2.443       .  S
Zr739       O758   2.503       .  S
Zr739       O766   2.477       .  S
Zr739       O754   2.458       .  S
Zr739       O745   2.405       .  S
Zr739       O746   2.426       .  S
Zr739       O747   2.380       .  S
Zr739       O748   2.392       .  S
Zr740       O759   2.440       .  S
Zr740       O752   2.405       .  S
Zr740       O753   2.468       .  S
Zr740       O746   2.405       .  S
Zr740       O747   2.374       .  S
Zr741       O743   2.435       .  S
Zr741       O765   2.439       .  S
Zr741       O767   2.457       .  S
Zr741       O745   2.384       .  S
Zr741       O748   2.403       .  S
Zr742       O768   2.436       .  S
Zr742       O769   2.439       .  S
Zr742       O744   2.441       .  S
Zr742       O745   2.380   1_455  S
Zr742       O746   2.365   1_455  S
O743        H780   0.990       .  S
O744        H775   0.990       .  S
O744        H789   0.990       .  S
O746        H772   0.961       .  S
O747       Zr757   2.384       .  S
O748       Zr757   2.392       .  S
O748        H773   0.965       .  S
O752        H788   0.989       .  S
O753        C755   1.295       .  A
O754        C755   1.286       .  A
C755       C1277   1.480       .  S
O756       Zr757   2.440       .  S
O756        H785   0.991       .  S
Zr757       O760   2.438       .  S
Zr757       O761   2.450       .  S
Zr757       O762   2.404       .  S
O758        C763   1.296       .  A
O759        H776   0.990       .  S
O759        H791   0.990       .  S
O760        H777   0.990       .  S
O761        H781   0.989       .  S
O761        H790   0.990       .  S
O762        C763   1.277       .  A
C763        C895   1.478       .  S
O764        H783   0.990       .  S
O764        H787   0.990       .  S
O765        H779   0.990       .  S
O765        H786   0.990       .  S
O766        C770   1.294       .  A
O767        C770   1.289       .  A
O768        H778   0.990       .  S
O769        H782   0.990       .  S
Zr793       O794   2.441       .  S
Zr793       O795   2.450       .  S
Zr793       O799   2.460       .  S
Zr793      O2196   2.507       .  S
Zr793       O801   2.388       .  S
Zr793       O802   2.404       .  S
Zr793       O803   2.402       .  S
Zr793       O804   2.413       .  S
O794       H2250   0.990       .  S
O794       H2258   0.990       .  S
O795        C815   1.286       .  A
O796      Zr2193   2.520   1_554  S
O796        C817   1.299       .  A
O797       Zr807   2.465       .  S
O797        C816   1.292       .  A
O798      Zr2206   2.466   1_554  S
O798        C817   1.290       .  A
O799        C816   1.290       .  A
O800       Zr808   2.376       .  S
O800        C815   1.272       .  A
O801       Zr806   2.392       .  S
O801       Zr808   2.393       .  S
O802       Zr807   2.391       .  S
O802       Zr808   2.371       .  S
O802        H837   0.965       .  S
O803       Zr806   2.395       .  S
O803       Zr823   2.401       .  S
O803        H840   0.965       .  S
O804       Zr807   2.400       .  S
O804       Zr823   2.386       .  S
Zr805       O830   2.438       .  S
Zr805       O824   2.449       .  S
Zr805       O832   2.517       .  S
Zr805       O820   2.484       .  S
Zr805       O811   2.422       .  S
Zr805       O812   2.424       .  S
Zr805       O813   2.410       .  S
Zr805       O814   2.396       .  S
Zr806       O825   2.443       .  S
Zr806       O818   2.435       .  S
Zr806       O819   2.421       .  S
Zr806      O2198   2.475       .  S
Zr806       O812   2.405       .  S
Zr806       O813   2.418       .  S
Zr807       O809   2.436       .  S
Zr807       O831   2.440       .  S
Zr807       O833   2.474       .  S
Zr807       O811   2.403       .  S
Zr807       O814   2.398       .  S
Zr808       O834   2.434       .  S
Zr808       O835   2.434       .  S
Zr808       O810   2.437       .  S
Zr808       O811   2.397       .  S
Zr808       O812   2.359       .  S
O809        H846   0.989       .  S
O810        H841   0.990       .  S
O810        H855   0.989       .  S
O812        H838   0.963       .  S
O813       Zr823   2.376       .  S
O814       Zr823   2.381       .  S
O814        H839   0.966       .  S
C815       C1217   1.445       .  S
C817        C883   1.524       .  S
O818        H854   0.989       .  S
O819        C821   1.285       .  A
O820        C821   1.293       .  A
O822       Zr823   2.437       .  S
O822        H851   0.990       .  S
Zr823       O826   2.436       .  S
Zr823       O827   2.440       .  S
Zr823       O828   2.423       .  S
O824        C829   1.282       .  A
O825       H2242   0.989       .  S
O825       H2257   0.990       .  S
O826        H843   0.988       .  S
O827        H847   0.990       .  S
O827        H856   0.990       .  S
O828        C829   1.283       .  A
O830        H849   0.990       .  S
O830        H853   0.990       .  S
O831        H845   0.990       .  S
O831        H852   0.990       .  S
O832        C836   1.299       .  A
O833        C836   1.293       .  A
O834        H844   0.989       .  S
O835        H848   0.990       .  S
C836        C902   1.526       .  S
H842       O2225   0.990       .  S
H850       O2194   0.991       .  S
H857       O2225   0.990       .  S
H858       O2194   0.990       .  S
Zr859       O860   2.446       .  S
Zr859       O861   2.507       .  S
Zr859       O862   2.509       .  S
Zr859       O865   2.427       .  S
Zr859       O867   2.382       .  S
Zr859       O868   2.405       .  S
Zr859       O869   2.421       .  S
Zr859       O870   2.424       .  S
O860        H916   0.990       .  S
O860        H924   0.991       .  S
O861        C881   1.295       .  A
O862        C883   1.297       .  A
O863       Zr873   2.499       .  S
O863        C882   1.300       .  A
O864       Zr872   2.503       .  S
O864        C883   1.297       .  A
O865        C882   1.279       .  A
O866       Zr874   2.353       .  S
O866        C881   1.268       .  A
O867       Zr872   2.415       .  S
O867       Zr874   2.404       .  S
O868       Zr873   2.397       .  S
O868       Zr874   2.388       .  S
O868        H903   0.965       .  S
O869       Zr872   2.400       .  S
O869       Zr889   2.390       .  S
O869        H906   0.962       .  S
O870       Zr873   2.388       .  S
O870       Zr889   2.393       .  S
Zr871       O896   2.444       .  S
Zr871       O890   2.469       .  S
Zr871       O898   2.484       .  S
Zr871       O886   2.439       .  S
Zr871       O877   2.388       .  S
Zr871       O878   2.428       .  S
Zr871       O879   2.393       .  S
Zr871       O880   2.390       .  S
Zr872       O891   2.436       .  S
Zr872       O884   2.434       .  S
Zr872       O885   2.468       .  S
Zr872       O878   2.412       .  S
Zr872       O879   2.395       .  S
Zr873       O875   2.435       .  S
Zr873       O897   2.437       .  S
Zr873       O899   2.531       .  S
Zr873       O877   2.376       .  S
Zr873       O880   2.411       .  S
Zr874       O900   2.436       .  S
Zr874       O901   2.436       .  S
Zr874       O876   2.438       .  S
Zr874       O877   2.374       .  S
Zr874       O878   2.360       .  S
O875        H912   0.989       .  S
O876        H907   0.990       .  S
O876        H921   0.990       .  S
O878        H904   0.962       .  S
O879       Zr889   2.371       .  S
O880       Zr889   2.400       .  S
O880        H905   0.966       .  S
O884        H920   0.990       .  S
O885        C887   1.297       .  A
O886        C887   1.282       .  A
C887       C1278   1.470       .  S
O888       Zr889   2.438       .  S
O888        H917   0.990       .  S
Zr889       O892   2.437       .  S
Zr889       O893   2.445       .  S
Zr889       O894   2.426       .  S
O890        C895   1.287       .  A
O891        H908   0.990       .  S
O891        H923   0.990       .  S
O892        H909   0.991       .  S
O893        H913   0.989       .  S
O893        H922   0.990       .  S
O894        C895   1.277       .  A
O896        H915   0.991       .  S
O896        H919   0.991       .  S
O897        H911   0.990       .  S
O897        H918   0.990       .  S
O898        C902   1.294       .  A
O899        C902   1.303       .  A
O900        H910   0.991       .  S
O901        H914   0.990       .  S
Zr925       O926   2.445       .  S
Zr925       O927   2.508   1_455  S
Zr925       O928   2.488       .  S
Zr925       O931   2.438       .  S
Zr925       O933   2.388       .  S
Zr925       O935   2.432       .  S
Zr925       O936   2.426       .  S
Zr925      O2334   2.413   1_554  S
O926        H982   0.991       .  S
O926        H990   0.991       .  S
O927        C947   1.283       .  A
O928        C949   1.294       .  A
O929       Zr939   2.454       .  S
O929       C2348   1.294       .  A
O930       Zr938   2.474       .  S
O930        C949   1.293       .  A
O931        C948   1.283       .  A
O932      Zr2340   2.396   1_554  S
O932        C947   1.266       .  A
O933       Zr938   2.402       .  S
O933      Zr2340   2.381   1_454  S
O934       Zr939   2.395       .  S
O934       Zr940   2.380   1_455  S
O934      Zr2325   2.414       .  S
O934        H969   0.965       .  S
O935       Zr938   2.407       .  S
O935       Zr955   2.389       .  S
O935        H972   0.963       .  S
O936       Zr955   2.389       .  S
O936      Zr2339   2.392   1_554  S
Zr937       O962   2.447       .  S
Zr937       O956   2.492       .  S
Zr937       O964   2.473       .  S
Zr937       O952   2.418       .  S
Zr937       O943   2.398       .  S
Zr937       O944   2.426       .  S
Zr937       O946   2.387       .  S
Zr937      O2345   2.386       .  S
Zr938       O957   2.437       .  S
Zr938       O950   2.415       .  S
Zr938       O951   2.484       .  S
Zr938       O945   2.396   1_554  S
Zr938      O2344   2.406   1_554  S
Zr939       O941   2.436       .  S
Zr939       O963   2.444       .  S
Zr939       O965   2.471       .  S
Zr939       O943   2.381       .  S
Zr939       O946   2.413       .  S
Zr939      O2336   2.391       .  S
Zr940       O966   2.431       .  S
Zr940       O967   2.438       .  S
Zr940      O2342   2.444       .  S
Zr940      O2332   2.399       .  S
Zr940       O943   2.386   1_655  S
Zr940       O944   2.378   1_655  S
Zr940      O2333   2.393   1_655  S
O941        H978   0.990       .  S
O942      Zr2340   2.447       .  S
O942        H973   0.990   1_556  S
O942        H987   0.989   1_556  S
O944      Zr2338   2.403       .  S
O944        H970   0.963       .  S
O945       Zr955   2.378   1_556  S
O945      Zr2337   2.389       .  S
O946      Zr2355   2.392       .  S
O946        H971   0.966       .  S
C948       O2329   1.287   1_554  A
C949       C1034   1.503       .  S
O950        H986   0.990       .  S
O951        C953   1.298   1_554  A
O952       C2353   1.280       .  A
C953       O2352   1.282       .  A
C953       C2611   1.471       .  S
O954       Zr955   2.439       .  S
O954        H983   0.990       .  S
Zr955       O958   2.441       .  S
Zr955      O2359   2.440   1_554  S
Zr955      O2360   2.414   1_554  S
Zr955      O2346   2.390   1_554  S
O956        C961   1.293       .  A
O957        H974   0.991       .  S
O957        H989   0.990       .  S
O958        H975   0.990       .  S
O959      Zr2355   2.440       .  S
O959        H979   0.990       .  S
O959        H988   0.990       .  S
O960      Zr2355   2.423       .  S
O960        C961   1.279       .  A
C961       C1093   1.490       .  S
O962        H981   0.990       .  S
O962        H985   0.991       .  S
O963        H977   0.990       .  S
O963        H984   0.990       .  S
O964        C968   1.290       .  A
O965        C968   1.289       .  A
O966        H976   0.990       .  S
O967        H980   0.991       .  S
C968       C1015   1.503       .  S
Zr991       O992   2.443       .  S
Zr991       O993   2.544   1_455  S
Zr991       O994   2.499       .  S
Zr991       O997   2.466       .  S
Zr991       O999   2.391       .  S
Zr991      O1000   2.403       .  S
Zr991      O1001   2.442       .  S
Zr991      O1002   2.433       .  S
O992       H1048   0.991       .  S
O992       H1056   0.990       .  S
O993       C1013   1.299       .  A
O994       C1015   1.296       .  A
O995      Zr1005   2.432       .  S
O995       C1014   1.289       .  A
O996      Zr1004   2.457       .  S
O996       C1015   1.290       .  A
O997       C1014   1.285       .  A
O998      Zr1006   2.362   1_655  S
O998       C1013   1.264       .  A
O999      Zr1004   2.406       .  S
O999      Zr1006   2.399       .  S
O1000     Zr1005   2.397       .  S
O1000     Zr1006   2.383       .  S
O1000      H1035   0.965       .  S
O1001     Zr1004   2.402       .  S
O1001     Zr1021   2.402       .  S
O1001      H1038   0.963       .  S
O1002     Zr1005   2.386       .  S
O1002     Zr1021   2.401       .  S
Zr1003     O1028   2.445       .  S
Zr1003     O1022   2.460       .  S
Zr1003     O1030   2.499       .  S
Zr1003     O1018   2.432       .  S
Zr1003     O1009   2.380       .  S
Zr1003     O1010   2.426       .  S
Zr1003     O1011   2.391       .  S
Zr1003     O1012   2.385       .  S
Zr1004     O1023   2.439       .  S
Zr1004     O1016   2.435       .  S
Zr1004     O1017   2.441       .  S
Zr1004     O1010   2.411       .  S
Zr1004     O1011   2.398       .  S
Zr1005     O1007   2.437       .  S
Zr1005     O1029   2.440       .  S
Zr1005     O1031   2.456       .  S
Zr1005     O1009   2.369       .  S
Zr1005     O1012   2.399       .  S
Zr1006     O1032   2.430   1_455  S
Zr1006     O1033   2.431   1_455  S
Zr1006     O1008   2.435   1_455  S
Zr1006     O1009   2.365       .  S
Zr1006     O1010   2.363       .  S
O1007      H1044   0.990       .  S
O1008      H1039   0.990       .  S
O1008      H1053   0.990       .  S
O1010      H1036   0.962       .  S
O1011     Zr1021   2.373       .  S
O1012     Zr1021   2.388       .  S
O1012      H1037   0.965       .  S
O1016      H1052   0.990   1_455  S
O1017      C1019   1.286       .  A
O1018      C1019   1.286       .  A
C1019      C1291   1.463       .  S
O1020     Zr1021   2.437       .  S
O1020      H1049   0.990       .  S
Zr1021     O1024   2.437       .  S
Zr1021     O1025   2.446       .  S
Zr1021     O1026   2.434       .  S
O1022      C1027   1.287       .  A
O1023      H1040   0.991       .  S
O1023      H1055   0.989       .  S
O1024      H1041   0.990       .  S
O1025      H1045   0.990       .  S
O1025      H1054   0.989       .  S
O1026      C1027   1.281       .  A
C1027      C1159   1.477       .  S
O1028      H1047   0.990       .  S
O1028      H1051   0.991       .  S
O1029      H1043   0.990       .  S
O1029      H1050   0.989       .  S
O1030      C1034   1.296       .  A
O1031      C1034   1.291       .  A
O1032      H1042   0.990       .  S
O1033      H1046   0.990       .  S
Zr1057     O1058   2.444       .  S
Zr1057     O1059   2.527       .  S
Zr1057     O1060   2.501       .  S
Zr1057     O1063   2.465       .  S
Zr1057     O1065   2.385       .  S
Zr1057     O1066   2.391       .  S
Zr1057     O1067   2.432       .  S
Zr1057     O1068   2.436       .  S
O1058      H1114   0.990       .  S
O1058      H1122   0.991       .  S
O1059      C1079   1.299       .  A
O1060      C1081   1.298       .  A
O1061     Zr1071   2.458       .  S
O1061      C1080   1.292       .  A
O1062     Zr1070   2.480       .  S
O1062      C1081   1.293       .  A
O1063      C1080   1.287       .  A
O1064     Zr1072   2.344       .  S
O1064      C1079   1.266       .  A
O1065     Zr1070   2.413       .  S
O1065     Zr1072   2.396       .  S
O1066     Zr1071   2.390       .  S
O1066     Zr1072   2.382       .  S
O1066      H1101   0.965       .  S
O1067     Zr1070   2.397       .  S
O1067     Zr1087   2.396       .  S
O1067      H1104   0.961       .  S
O1068     Zr1071   2.393       .  S
O1068     Zr1087   2.412       .  S
Zr1069     O2494   2.448       .  S
Zr1069     O1088   2.477       .  S
Zr1069     O1084   2.410       .  S
Zr1069     O2496   2.467       .  S
Zr1069     O1075   2.377       .  S
Zr1069     O1076   2.426       .  S
Zr1069     O1077   2.384       .  S
Zr1069     O1078   2.394       .  S
Zr1070     O1089   2.439       .  S
Zr1070     O1082   2.440       .  S
Zr1070     O1083   2.468       .  S
Zr1070     O1076   2.407       .  S
Zr1070     O1077   2.395       .  S
Zr1071     O1073   2.434       .  S
Zr1071     O2495   2.441       .  S
Zr1071     O2497   2.486       .  S
Zr1071     O1075   2.363       .  S
Zr1071     O1078   2.415       .  S
Zr1072     O1098   2.437       .  S
Zr1072     O1099   2.434       .  S
Zr1072     O1074   2.440       .  S
Zr1072     O1075   2.359       .  S
Zr1072     O1076   2.352       .  S
O1073      H2510   0.991       .  S
O1074      H1105   0.990       .  S
O1074      H1119   0.989       .  S
O1076      H1102   0.963       .  S
O1077     Zr1087   2.372       .  S
O1078     Zr1087   2.392       .  S
O1078      H1103   0.966       .  S
C1081      C1166   1.512       .  S
O1082      H1118   0.990       .  S
O1083      C1085   1.294       .  A
O1084      C1085   1.279       .  A
C1085      C1212   1.456       .  S
O1086     Zr1087   2.438       .  S
O1086      H1115   0.990       .  S
Zr1087     O1090   2.439       .  S
Zr1087     O1091   2.441       .  S
Zr1087     O1092   2.448       .  S
O1088      C1093   1.290       .  A
O1089      H1106   0.990       .  S
O1089      H1121   0.990       .  S
O1090      H1107   0.990       .  S
O1091      H1111   0.989       .  S
O1091      H1120   0.991       .  S
O1092      C1093   1.283       .  A
O1094     Zr2469   2.444   1_554  S
O1094      H1113   0.990       .  S
O1094      H2517   0.991       .  S
O1095     Zr2471   2.440   1_554  S
O1095      H1109   0.990       .  S
O1095      H2516   0.990       .  S
O1096     Zr2469   2.475   1_554  S
O1096      C1100   1.293       .  A
O1097     Zr2471   2.481   1_554  S
O1097      C1100   1.294       .  A
O1098      H1108   0.990       .  S
O1099      H1112   0.990       .  S
C1100      C1147   1.499       .  S
H1110      O2473   0.990       .  S
H1116      O2495   0.989       .  S
H1117      O2494   0.990       .  S
Zr1123     O1124   2.446       .  S
Zr1123     O1125   2.497       .  S
Zr1123     O1126   2.485       .  S
Zr1123     O1129   2.432       .  S
Zr1123     O1131   2.392       .  S
Zr1123     O1132   2.404       .  S
Zr1123     O1133   2.428       .  S
Zr1123     O1134   2.424       .  S
O1124      H1180   0.991       .  S
O1124      H1188   0.991       .  S
O1125      C1145   1.291       .  A
O1126      C1147   1.291       .  A
O1127     Zr1137   2.435       .  S
O1127      C1146   1.289       .  A
O1128     Zr1136   2.457       .  S
O1128      C1147   1.288       .  A
O1129      C1146   1.280       .  A
O1130     Zr1138   2.372       .  S
O1130      C1145   1.274       .  A
O1131     Zr1136   2.409       .  S
O1131     Zr1138   2.396       .  S
O1132     Zr1137   2.379       .  S
O1132     Zr1138   2.384       .  S
O1132      H1167   0.965       .  S
O1133     Zr1136   2.402       .  S
O1133     Zr1153   2.392       .  S
O1133      H1170   0.963       .  S
O1134     Zr1137   2.388       .  S
O1134     Zr1153   2.392       .  S
Zr1135     O1160   2.444       .  S
Zr1135     O1154   2.470       .  S
Zr1135     O1162   2.517       .  S
Zr1135     O1150   2.444       .  S
Zr1135     O1141   2.397       .  S
Zr1135     O1142   2.431       .  S
Zr1135     O1143   2.392       .  S
Zr1135     O1144   2.395       .  S
Zr1136     O1155   2.439       .  S
Zr1136     O1148   2.434       .  S
Zr1136     O1149   2.446       .  S
Zr1136     O1142   2.408       .  S
Zr1136     O1143   2.392       .  S
Zr1137     O1139   2.436       .  S
Zr1137     O1161   2.446       .  S
Zr1137     O1163   2.449       .  S
Zr1137     O1141   2.390       .  S
Zr1137     O1144   2.404       .  S
Zr1138     O1164   2.437       .  S
Zr1138     O1165   2.438       .  S
Zr1138     O1140   2.438       .  S
Zr1138     O1141   2.389       .  S
Zr1138     O1142   2.367       .  S
O1139      H1176   0.990       .  S
O1140      H1171   0.990       .  S
O1140      H1185   0.990       .  S
O1142      H1168   0.964       .  S
O1143     Zr1153   2.367       .  S
O1144     Zr1153   2.394       .  S
O1144      H1169   0.966       .  S
O1148      H1184   0.990       .  S
O1149      C1151   1.285       .  A
O1150      C1151   1.289       .  A
C1151      C1283   1.466       .  S
O1152     Zr1153   2.439       .  S
O1152      H1181   0.990       .  S
Zr1153     O1156   2.437       .  S
Zr1153     O1157   2.441       .  S
Zr1153     O1158   2.426       .  S
O1154      C1159   1.289       .  A
O1155      H1172   0.991       .  S
O1155      H1187   0.990       .  S
O1156      H1173   0.990       .  S
O1157      H1177   0.990       .  S
O1157      H1186   0.991       .  S
O1158      C1159   1.279       .  A
O1160      H1179   0.991       .  S
O1160      H1183   0.991       .  S
O1161      H1175   0.990       .  S
O1161      H1182   0.990       .  S
O1162      C1166   1.298       .  A
O1163      C1166   1.286       .  A
O1164      H1174   0.990       .  S
O1165      H1178   0.990       .  S
Zr1189     O2590   2.432       .  S
Zr1189     O1195   2.446       .  S
Zr1189     O2591   2.372       .  S
Zr1189     O2592   2.435       .  S
Zr1189     O1197   2.341   1_455  S
Zr1189     O1198   2.375       .  S
Zr1189     O1200   2.369       .  S
Zr1189     O2599   2.405   1_455  S
O1190     Zr2589   2.434       .  S
O1190      H1246   0.990       .  S
O1190      H1254   0.990       .  S
O1191     Zr2589   2.370       .  S
O1191      C2611   1.271   1_554  A
O1192     Zr2589   2.420       .  S
O1192      C1213   1.282   1_455  A
O1193     Zr1203   2.398       .  S
O1193      C1212   1.278       .  A
O1194     Zr1202   2.399       .  S
O1194      C1213   1.272       .  A
O1195      C1212   1.288       .  A
O1196     Zr1204   2.467   1_455  S
O1196      C1211   1.289       .  A
O1197     Zr1204   2.346       .  S
O1197     Zr2602   2.356       .  S
O1198     Zr1203   2.402       .  S
O1198     Zr1204   2.347   1_455  S
O1198      H1233   0.964       .  S
O1199     Zr1202   2.406       .  S
O1199     Zr2589   2.402   1_655  S
O1199     Zr2619   2.413   1_655  S
O1199      H1236   0.966       .  S
O1200     Zr1203   2.421       .  S
O1200     Zr1219   2.437       .  S
Zr1201     O1226   2.436       .  S
Zr1201     O1220   2.396       .  S
Zr1201     O1228   2.437       .  S
Zr1201     O1216   2.408       .  S
Zr1201     O1207   2.413   1_655  S
Zr1201     O1208   2.427       .  S
Zr1201     O1209   2.392       .  S
Zr1201     O1210   2.377   1_655  S
Zr1202     O1221   2.435       .  S
Zr1202     O1214   2.438       .  S
Zr1202     O2615   2.434       .  S
Zr1202     O2597   2.355   1_554  S
Zr1202     O2608   2.392   1_554  S
Zr1202     O2609   2.348   1_554  S
Zr1203     O1205   2.436       .  S
Zr1203     O1227   2.439       .  S
Zr1203     O1229   2.412       .  S
Zr1203     O1207   2.404       .  S
Zr1203     O1210   2.385       .  S
Zr1204     O1230   2.437   1_655  S
Zr1204     O1231   2.435       .  S
Zr1204     O1206   2.420       .  S
Zr1204     O1207   2.401   1_655  S
Zr1204     O1208   2.412       .  S
O1205      H1242   0.990       .  S
O1206      H1237   0.990       .  S
O1206      H1251   0.990       .  S
O1208     Zr2602   2.400       .  S
O1208      H1234   0.966       .  S
O1209     Zr1219   2.372   1_655  S
O1209     Zr2602   2.355       .  S
O1210     Zr1219   2.351       .  S
O1210      H1235   0.963       .  S
C1211      O2591   1.270       .  A
C1211      C2353   1.460       .  S
C1213      C1341   1.475       .  S
O1214      H1250   0.990   1_554  S
O1215     Zr2602   2.430       .  S
O1215      C1217   1.281       .  A
O1216      C1217   1.281       .  A
O1218     Zr2619   2.435       .  S
O1218      H1247   0.989       .  S
Zr1219     O1223   2.443       .  S
Zr1219     O2618   2.433       .  S
Zr1219     O2622   2.432   1_455  S
Zr1219     O1224   2.464   1_455  S
Zr1219     O2599   2.420   1_455  S
O1220      C1225   1.278       .  A
O1221      H1238   0.990       .  S
O1221      H1253   0.991       .  S
O1222     Zr2619   2.430   1_655  S
O1222      H1239   0.990       .  S
O1223      H1243   0.990       .  S
O1223      H1252   0.990       .  S
O1224      C1225   1.291       .  A
O1226      H1245   0.990       .  S
O1226      H1249   0.990       .  S
O1227      H1241   0.990       .  S
O1227      H1248   0.990       .  S
O1228      C1232   1.286   1_655  A
O1229      C1232   1.283       .  A
O1230      H1240   0.991       .  S
O1231      H1244   0.990       .  S
C1232      C1321   1.468       .  S
Zr1255     O1256   2.430       .  S
Zr1255     O1257   2.360       .  S
Zr1255     O1258   2.475   1_655  S
Zr1255     O1261   2.507       .  S
Zr1255     O1263   2.345   1_655  S
Zr1255     O1264   2.383       .  S
Zr1255     O1265   2.414   1_655  S
Zr1255     O1266   2.376       .  S
O1256      H1312   0.989       .  S
O1256      H1320   0.990       .  S
O1257      C1277   1.270       .  A
O1258      C1279   1.292       .  A
O1259     Zr1269   2.370       .  S
O1259      C1278   1.274       .  A
O1260     Zr1268   2.378       .  S
O1260      C1279   1.271       .  A
O1261      C1278   1.298       .  A
O1262     Zr1270   2.512       .  S
O1262      C1277   1.296       .  A
O1263     Zr1268   2.352       .  S
O1263     Zr1270   2.338   1_455  S
O1264     Zr1269   2.402       .  S
O1264     Zr1270   2.347       .  S
O1264      H1299   0.963       .  S
O1265     Zr1268   2.404       .  S
O1265     Zr1285   2.419   1_455  S
O1265      H1302   0.966       .  S
O1266     Zr1269   2.406       .  S
O1266     Zr1285   2.430       .  S
Zr1267     O1292   2.435       .  S
Zr1267     O1286   2.401       .  S
Zr1267     O1294   2.465   1_455  S
Zr1267     O1282   2.451       .  S
Zr1267     O1273   2.413   1_455  S
Zr1267     O1274   2.438       .  S
Zr1267     O1275   2.390       .  S
Zr1267     O1276   2.380   1_455  S
Zr1268     O1287   2.434       .  S
Zr1268     O1280   2.433       .  S
Zr1268     O1281   2.411       .  S
Zr1268     O1274   2.381       .  S
Zr1268     O1275   2.338       .  S
Zr1269     O1271   2.434       .  S
Zr1269     O1293   2.439       .  S
Zr1269     O1295   2.375       .  S
Zr1269     O1273   2.403       .  S
Zr1269     O1276   2.376       .  S
Zr1270     O1296   2.433       .  S
Zr1270     O1297   2.438   1_655  S
Zr1270     O1272   2.436   1_655  S
Zr1270     O1273   2.413       .  S
Zr1270     O1274   2.427   1_655  S
O1271      H1308   0.990       .  S
O1272      H1303   0.989       .  S
O1272      H1317   0.991       .  S
O1274      H1300   0.966       .  S
O1275     Zr1285   2.378   1_455  S
O1276     Zr1285   2.374       .  S
O1276      H1301   0.965       .  S
C1279      C1332   1.478       .  S
O1280      H1316   0.990       .  S
O1281      C1283   1.280       .  A
O1282      C1283   1.287       .  A
O1284     Zr1285   2.435       .  S
O1284      H1313   0.989       .  S
Zr1285     O1288   2.435   1_655  S
Zr1285     O1289   2.441       .  S
Zr1285     O1290   2.447   1_655  S
O1286      C1291   1.281       .  A
O1287      H1304   0.990       .  S
O1287      H1319   0.989       .  S
O1288      H1305   0.990       .  S
O1289      H1309   0.990       .  S
O1289      H1318   0.990       .  S
O1290      C1291   1.287       .  A
O1292      H1311   0.990       .  S
O1292      H1315   0.990       .  S
O1293      H1307   0.989       .  S
O1293      H1314   0.989       .  S
O1294      C1298   1.293       .  A
O1295      C1298   1.273       .  A
O1296      H1306   0.989       .  S
O1297      H1310   0.990       .  S
C1298      C1352   1.459       .  S
C1321      C1322   1.400       .  A
C1321      C1326   1.409       .  A
C1322      C1323   1.387       .  A
C1322     Br1338   1.922   1_455  S
C1323      C1324   1.409       .  A
C1323      H1327   1.063       .  S
C1324      C1328   1.498       .  S
C1324      C1325   1.408       .  A
C1325      C1326   1.398       .  A
C1325     Br1337   1.917       .  S
C1326      H1329   1.083       .  S
C1328      C1330   1.400       .  A
C1328      C1334   1.407       .  A
C1330      C1331   1.393       .  A
C1330      H1335   1.081       .  S
C1331      C1332   1.419       .  A
C1331     Br1339   1.916       .  S
C1332      C1333   1.407       .  A
C1333      C1334   1.409       .  A
C1333      H1336   1.083       .  S
C1334     Br1340   1.906       .  S
C1341      C1342   1.417       .  A
C1341      C1346   1.397       .  A
C1342      C1343   1.398       .  A
C1342     Br1358   1.915       .  S
C1343      C1344   1.400       .  A
C1343      H1347   1.083       .  S
C1344      C1348   1.492       .  S
C1344      C1345   1.425       .  A
C1345      C1346   1.386       .  A
C1345     Br1357   1.924   1_655  S
C1346      H1349   1.084   1_655  S
C1348      C1350   1.401       .  A
C1348      C1354   1.418       .  A
C1350      C1351   1.403       .  A
C1350      H1355   1.081       .  S
C1351      C1352   1.403       .  A
C1351     Br1359   1.912       .  S
C1352      C1353   1.398       .  A
C1353      C1354   1.393       .  A
C1353      H1356   1.084       .  S
C1354     Br1360   1.922       .  S
C1361      C1362   1.419       .  A
C1361      C1366   1.422       .  A
C1362      C1363   1.405       .  A
C1362     Br1378   1.914       .  S
C1363      C1364   1.408       .  A
C1363      H1367   1.080       .  S
C1364      C1368   1.528       .  S
C1364      C1365   1.408       .  A
C1365      C1366   1.409       .  A
C1365     Br1377   1.915       .  S
C1366      H1369   1.082       .  S
C1368      C1370   1.424       .  A
C1368      C1374   1.417       .  A
C1370      C1371   1.402       .  A
C1370      H1375   1.078       .  S
C1371      C1372   1.404       .  A
C1371     Br1379   1.918       .  S
C1372      C1373   1.403       .  A
C1373      C1374   1.388       .  A
C1373      H1376   1.072       .  S
C1374     Br1380   1.919       .  S
C1381      C1382   1.410       .  A
C1381      C1386   1.405       .  A
C1382      C1383   1.415       .  A
C1382     Br1398   1.888       .  S
C1383      C1384   1.413       .  A
C1383      H1387   1.083       .  S
C1384      C1388   1.514       .  S
C1384      C1385   1.410       .  A
C1385      C1386   1.396       .  A
C1385     Br1397   1.911       .  S
C1386      H1389   1.075       .  S
C1388      C1390   1.411       .  A
C1388      C1394   1.408       .  A
C1390      C1391   1.386       .  A
C1390      H1395   1.081       .  S
C1391      C1392   1.416       .  A
C1391     Br1399   1.920       .  S
C1392      C1393   1.413       .  A
C1393      C1394   1.400       .  A
C1393      H1396   1.083       .  S
C1394     Br1400   1.915       .  S
Zr1401     O1402   2.444       .  S
Zr1401     O1403   2.456       .  S
Zr1401     O1404   2.495       .  S
Zr1401     O1407   2.452       .  S
Zr1401     O1409   2.370       .  S
Zr1401     O1411   2.401       .  S
Zr1401     O1412   2.413       .  S
O1402      H1458   0.990       .  S
O1402      H1466   0.990       .  S
O1403      C1423   1.286       .  A
O1404      C1425   1.295       .  A
O1405     Zr1415   2.446       .  S
O1405      C1424   1.288       .  A
O1406     Zr1414   2.430       .  S
O1406      C1425   1.283       .  A
O1408      C1423   1.280       .  A
O1409     Zr1414   2.386       .  S
O1410     Zr1415   2.394       .  S
O1410     Zr1416   2.369       .  S
O1410      H1445   0.966       .  S
O1411     Zr1414   2.396       .  S
O1411     Zr1431   2.405       .  S
O1411      H1448   0.965       .  S
O1412     Zr1431   2.383       .  S
Zr1413     O1438   2.439       .  S
Zr1413     O1432   2.483       .  S
Zr1413     O1440   2.519       .  S
Zr1413     O1428   2.536       .  S
Zr1413     O1419   2.428       .  S
Zr1413     O1420   2.420       .  S
Zr1413     O1422   2.403       .  S
Zr1414     O1433   2.440       .  S
Zr1414     O1426   2.438   1_545  S
Zr1414     O1427   2.411       .  S
Zr1414     O1421   2.407       .  S
Zr1415     O1417   2.434       .  S
Zr1415     O1439   2.439       .  S
Zr1415     O1441   2.437       .  S
Zr1415     O1419   2.403       .  S
Zr1415     O1422   2.392       .  S
Zr1416     O1442   2.436       .  S
Zr1416     O1443   2.436   1_545  S
Zr1416     O1419   2.402       .  S
Zr1416     O1420   2.381       .  S
O1417      H1454   0.990       .  S
O1418      H1463   0.991       .  S
O1420      H1446   0.963   1_545  S
O1421     Zr1431   2.379       .  S
O1422      H1447   0.966       .  S
C1423      C1693   1.467       .  S
C1425      C1491   1.496       .  S
O1426      H1462   0.989       .  S
O1427      C1429   1.281   1_545  A
C1429      C2084   1.497       .  S
O1430     Zr1431   2.436       .  S
O1430      H1459   0.990       .  S
Zr1431     O1434   2.436       .  S
O1432      C1437   1.291       .  A
O1433      H1450   0.990       .  S
O1433      H1465   0.990       .  S
O1434      H1451   0.990       .  S
O1435      H1464   0.990       .  S
O1436      C1437   1.279       .  A
C1437      C2347   1.486       .  S
O1438      H1457   0.991   1_545  S
O1438      H1461   0.990       .  S
O1439      H1453   0.990       .  S
O1439      H1460   0.991       .  S
O1440      C1444   1.303       .  A
O1441      C1444   1.285       .  A
O1442      H1452   0.990       .  S
O1443      H1456   0.990       .  S
C1444      C1510   1.509       .  S
Zr1467     O1468   2.443       .  S
Zr1467     O1469   2.508       .  S
Zr1467     O1470   2.495       .  S
Zr1467     O1473   2.419       .  S
Zr1467     O1475   2.376       .  S
Zr1467     O1476   2.397       .  S
Zr1467     O1477   2.423       .  S
Zr1467     O1478   2.422       .  S
O1468      H1524   0.991       .  S
O1468      H1532   0.990       .  S
O1469      C1489   1.295   1_545  A
O1470      C1491   1.295       .  A
O1471     Zr1481   2.506       .  S
O1471      C1490   1.302       .  A
O1472     Zr1480   2.449       .  S
O1472      C1491   1.287       .  A
O1473      C1490   1.279       .  A
O1474     Zr1482   2.340   1_565  S
O1474      C1489   1.268       .  A
O1475     Zr1480   2.410       .  S
O1475     Zr1482   2.394       .  S
O1476     Zr1481   2.373       .  S
O1476     Zr1482   2.393       .  S
O1476      H1511   0.963       .  S
O1477     Zr1480   2.394       .  S
O1477     Zr1497   2.395       .  S
O1477      H1514   0.963       .  S
O1478     Zr1481   2.371       .  S
O1478     Zr1497   2.391       .  S
Zr1479     O1504   2.443       .  S
Zr1479     O1498   2.449       .  S
Zr1479     O1506   2.510       .  S
Zr1479     O1494   2.492       .  S
Zr1479     O1485   2.385       .  S
Zr1479     O1486   2.415       .  S
Zr1479     O1487   2.387       .  S
Zr1479     O1488   2.406       .  S
Zr1480     O1499   2.441       .  S
Zr1480     O1492   2.434       .  S
Zr1480     O1493   2.429       .  S
Zr1480     O1486   2.412       .  S
Zr1480     O1487   2.381       .  S
Zr1481     O1483   2.436       .  S
Zr1481     O1505   2.440       .  S
Zr1481     O1507   2.460       .  S
Zr1481     O1485   2.398       .  S
Zr1481     O1488   2.405       .  S
Zr1482     O1508   2.434   1_545  S
Zr1482     O1509   2.443   1_545  S
Zr1482     O1484   2.437   1_545  S
Zr1482     O1485   2.370       .  S
Zr1482     O1486   2.345       .  S
O1483      H1520   0.990       .  S
O1484      H1515   0.990       .  S
O1484      H1529   0.990       .  S
O1486      H1512   0.963       .  S
O1487     Zr1497   2.371       .  S
O1488     Zr1497   2.390       .  S
O1488      H1513   0.966       .  S
C1489      C2150   1.460       .  S
C1490      C2413   1.477       .  S
O1492      H1528   0.990       .  S
O1493      C1495   1.284       .  A
O1494      C1495   1.297       .  A
C1495      C1759   1.472       .  S
O1496     Zr1497   2.438       .  S
O1496      H1525   0.990       .  S
Zr1497     O1500   2.441       .  S
Zr1497     O1501   2.444       .  S
Zr1497     O1502   2.422       .  S
O1498      C1503   1.285       .  A
O1499      H1516   0.990       .  S
O1499      H1531   0.991       .  S
O1500      H1517   0.990       .  S
O1501      H1521   0.990       .  S
O1501      H1530   0.990       .  S
O1502      C1503   1.278       .  A
C1503      C1635   1.460       .  S
O1504      H1523   0.990       .  S
O1504      H1527   0.991       .  S
O1505      H1519   0.990       .  S
O1505      H1526   0.989       .  S
O1506      C1510   1.300       .  A
O1507      C1510   1.289       .  A
O1508      H1518   0.990   1_565  S
O1509      H1522   0.989       .  S
Zr1533     O1534   2.438       .  S
Zr1533     O1535   2.487       .  S
Zr1533     O1536   2.503       .  S
Zr1533     O1539   2.491       .  S
Zr1533     O1541   2.399       .  S
Zr1533     O1542   2.405       .  S
Zr1533     O1543   2.429       .  S
Zr1533     O1544   2.424       .  S
O1534      H1590   0.990       .  S
O1534      H1598   0.990       .  S
O1535      C1555   1.287       .  A
O1536      C1557   1.299       .  A
O1537     Zr1547   2.448       .  S
O1537      C1556   1.290       .  A
O1538     Zr1546   2.487       .  S
O1538      C1557   1.295       .  A
O1539      C1556   1.293       .  A
O1540     Zr1548   2.372       .  S
O1540      C1555   1.265       .  A
O1541     Zr1546   2.402       .  S
O1541     Zr1548   2.387       .  S
O1542     Zr1547   2.383       .  S
O1542     Zr1548   2.388       .  S
O1542      H1577   0.965       .  S
O1543     Zr1546   2.409       .  S
O1543     Zr1563   2.390       .  S
O1543      H1580   0.962       .  S
O1544     Zr1547   2.395       .  S
O1544     Zr1563   2.413       .  S
Zr1545     O1560   2.436   1_554  S
Zr1545     O1551   2.384       .  S
Zr1545     O1552   2.420   1_554  S
Zr1545     O1553   2.389   1_554  S
Zr1545     O1554   2.389   1_554  S
Zr1546     O1565   2.437       .  S
Zr1546     O1558   2.436       .  S
Zr1546     O1559   2.466       .  S
Zr1546     O1552   2.419       .  S
Zr1546     O1553   2.392       .  S
Zr1547     O1551   2.389   1_556  S
Zr1547     O1554   2.408       .  S
Zr1548     O1574   2.436   1_556  S
Zr1548     O1550   2.439       .  S
Zr1548     O1551   2.375   1_556  S
Zr1548     O1552   2.367       .  S
O1549      H1586   0.990       .  S
O1550      H1581   0.990       .  S
O1550      H1595   0.990       .  S
O1552      H1578   0.964       .  S
O1553     Zr1563   2.369       .  S
O1554     Zr1563   2.383       .  S
C1555      C2480   1.463       .  S
C1556      C2221   1.506       .  S
C1557      C1642   1.519       .  S
O1558      H1594   0.990       .  S
O1559      C1561   1.294       .  A
O1560      C1561   1.281       .  A
C1561      C1701   1.468       .  S
O1562     Zr1563   2.436       .  S
O1562      H1591   0.991       .  S
Zr1563     O1566   2.437       .  S
Zr1563     O1567   2.439       .  S
Zr1563     O1568   2.441       .  S
O1565      H1582   0.990       .  S
O1565      H1597   0.989       .  S
O1566      H1583   0.989       .  S
O1567      H1587   0.990       .  S
O1567      H1596   0.990       .  S
O1568      C1569   1.284       .  A
O1570      H1589   0.990       .  S
O1570      H1593   0.990       .  S
O1571      H1585   0.989       .  S
O1571      H1592   0.989       .  S
O1572      C1576   1.297       .  A
O1573      C1576   1.283       .  A
O1574      H1584   0.990       .  S
C1576      C1623   1.492       .  S
Zr1599     O1600   2.442       .  S
Zr1599     O1601   2.494       .  S
Zr1599     O1602   2.513       .  S
Zr1599     O1605   2.444       .  S
Zr1599     O1607   2.381       .  S
Zr1599     O1608   2.414       .  S
Zr1599     O1609   2.416       .  S
Zr1599     O1610   2.417       .  S
O1600      H1656   0.990       .  S
O1600      H1664   0.991       .  S
O1601      C1621   1.292       .  A
O1602      C1623   1.298       .  A
O1603     Zr1613   2.464       .  S
O1603      C1622   1.296       .  A
O1604     Zr1612   2.414       .  S
O1604      C1623   1.279       .  A
O1605      C1622   1.282       .  A
O1606     Zr1614   2.344       .  S
O1606      C1621   1.269       .  A
O1607     Zr1612   2.394       .  S
O1607     Zr1614   2.394       .  S
O1608     Zr1613   2.391       .  S
O1608     Zr1614   2.387       .  S
O1608      H1643   0.965       .  S
O1609     Zr1612   2.394       .  S
O1609     Zr1629   2.388       .  S
O1609      H1646   0.963       .  S
O1610     Zr1613   2.379       .  S
O1610     Zr1629   2.375       .  S
Zr1611     O1636   2.445       .  S
Zr1611     O1630   2.465       .  S
Zr1611     O1638   2.519       .  S
Zr1611     O1626   2.474       .  S
Zr1611     O1617   2.382       .  S
Zr1611     O1618   2.421       .  S
Zr1611     O1619   2.384       .  S
Zr1611     O1620   2.395       .  S
Zr1612     O1631   2.442       .  S
Zr1612     O1624   2.435       .  S
Zr1612     O1625   2.388       .  S
Zr1612     O1618   2.418       .  S
Zr1612     O1619   2.394       .  S
Zr1613     O1615   2.437       .  S
Zr1613     O1637   2.438       .  S
Zr1613     O1639   2.476       .  S
Zr1613     O1617   2.378       .  S
Zr1613     O1620   2.405       .  S
Zr1614     O1640   2.437       .  S
Zr1614     O1641   2.438       .  S
Zr1614     O1616   2.442       .  S
Zr1614     O1617   2.364       .  S
Zr1614     O1618   2.366       .  S
O1615      H1652   0.990       .  S
O1616      H1647   0.990       .  S
O1616      H1661   0.990       .  S
O1618      H1644   0.964       .  S
O1619     Zr1629   2.369       .  S
O1620     Zr1629   2.393       .  S
O1620      H1645   0.966       .  S
C1621      C2546   1.463       .  S
C1622      C2281   1.479       .  S
O1624      H1660   0.991       .  S
O1625      C1627   1.276       .  A
O1626      C1627   1.294       .  A
C1627      C1767   1.459       .  S
O1628     Zr1629   2.434       .  S
O1628      H1657   0.990       .  S
Zr1629     O1632   2.436       .  S
Zr1629     O1633   2.440       .  S
Zr1629     O1634   2.392       .  S
O1630      C1635   1.288       .  A
O1631      H1648   0.990       .  S
O1631      H1663   0.990       .  S
O1632      H1649   0.990       .  S
O1633      H1653   0.990       .  S
O1633      H1662   0.990       .  S
O1634      C1635   1.273       .  A
O1636      H1655   0.990       .  S
O1636      H1659   0.990       .  S
O1637      H1651   0.990       .  S
O1637      H1658   0.990       .  S
O1638      C1642   1.301       .  A
O1639      C1642   1.294       .  A
O1640      H1650   0.991       .  S
O1641      H1654   0.988       .  S
Zr1665     O1666   2.442   1_565  S
Zr1665     O1667   2.459       .  S
Zr1665     O1668   2.427       .  S
Zr1665     O1671   2.361       .  S
Zr1665     O1673   2.341       .  S
Zr1665     O1674   2.393       .  S
Zr1665     O1675   2.424   1_565  S
Zr1665     O1676   2.398   1_565  S
O1666      H1722   0.990       .  S
O1666      H1730   0.988       .  S
O1667      C1687   1.286       .  A
O1668      C1689   1.274       .  A
O1669      C1688   1.288   1_554  A
O1670     Zr1678   2.463   1_565  S
O1670      C1689   1.281       .  A
O1671      C1688   1.271       .  A
O1672     Zr1680   2.421       .  S
O1672      C1687   1.279       .  A
O1673     Zr1678   2.360   1_565  S
O1673     Zr1680   2.309       .  S
O1674     Zr1680   2.402       .  S
O1674      H1709   0.965       .  S
O1675     Zr1678   2.452       .  S
O1675     Zr1695   2.388       .  S
O1675      H1712   0.950       .  S
O1676     Zr1695   2.417       .  S
Zr1677     O1702   2.446       .  S
Zr1677     O1696   2.480       .  S
Zr1677     O1704   2.447       .  S
Zr1677     O1683   2.361   1_545  S
Zr1678     O1697   2.430       .  S
Zr1678     O1690   2.449   1_545  S
Zr1678     O1691   2.486       .  S
Zr1678     O1684   2.392   1_545  S
Zr1678     O1685   2.299       .  S
Zr1679     O1681   2.438   1_565  S
Zr1679     O1703   2.437       .  S
Zr1679     O1705   2.460       .  S
Zr1679     O1683   2.324       .  S
Zr1680     O1682   2.432       .  S
Zr1680     O1684   2.428       .  S
O1681      H1718   0.990       .  S
O1682      H1713   0.990       .  S
O1682      H1727   0.990       .  S
O1684      H1710   0.965       .  S
O1685     Zr1695   2.327       .  S
O1686     Zr1695   2.377   1_554  S
C1687      C1825   1.471       .  S
C1688      C1957   1.457       .  S
C1689      C2772   1.497   1_565  S
O1690      H1726   0.991       .  S
O1691      C1693   1.290       .  A
O1692      C1693   1.276       .  A
O1694     Zr1695   2.454       .  S
O1694      H1723   0.990       .  S
Zr1695     O1698   2.436       .  S
Zr1695     O1699   2.452   1_556  S
Zr1695     O1700   2.379       .  S
O1697      H1714   0.990       .  S
O1697      H1729   0.991       .  S
O1698      H1715   0.990       .  S
O1699      H1719   0.990   1_554  S
O1699      H1728   0.990       .  S
O1700      C1701   1.274       .  A
O1702      H1721   0.990       .  S
O1702      H1725   0.991       .  S
O1703      H1717   0.990       .  S
O1703      H1724   0.990       .  S
O1704      C1708   1.287   1_545  A
O1705      C1708   1.291       .  A
O1706      H1716   0.990       .  S
O1707      H1720   0.990       .  S
C1708      C2792   1.481       .  S
Zr1731     O1732   2.432       .  S
Zr1731     O1733   2.328       .  S
Zr1731     O1734   2.503       .  S
Zr1731     O1737   2.536       .  S
Zr1731     O1739   2.353       .  S
Zr1731     O1740   2.369       .  S
Zr1731     O1741   2.428   1_565  S
Zr1731     O1742   2.374   1_565  S
O1732      H1788   0.990       .  S
O1732      H1796   0.990       .  S
O1733      C1753   1.264       .  A
O1734      C1755   1.293       .  A
O1735     Zr1745   2.364   1_565  S
O1735      C1754   1.270       .  A
O1736     Zr1744   2.361       .  S
O1736      C1755   1.256       .  A
O1737      C1754   1.305       .  A
O1738     Zr1746   2.557       .  S
O1738      C1753   1.308       .  A
O1739     Zr1744   2.371       .  S
O1739     Zr1746   2.340       .  S
O1740     Zr1745   2.415   1_565  S
O1740     Zr1746   2.324       .  S
O1740      H1775   0.962       .  S
O1741     Zr1744   2.420   1_545  S
O1741     Zr1761   2.417       .  S
O1741      H1778   0.966   1_545  S
O1742     Zr1745   2.403       .  S
O1742     Zr1761   2.427       .  S
Zr1743     O1768   2.428       .  S
Zr1743     O1762   2.382       .  S
Zr1743     O1770   2.450       .  S
Zr1743     O1758   2.435       .  S
Zr1743     O1749   2.415       .  S
Zr1743     O1750   2.423   1_545  S
Zr1743     O1751   2.383       .  S
Zr1743     O1752   2.379       .  S
Zr1744     O1763   2.439       .  S
Zr1744     O1756   2.439       .  S
Zr1744     O1757   2.449   1_565  S
Zr1744     O1750   2.376       .  S
Zr1744     O1751   2.320   1_565  S
Zr1745     O1747   2.438       .  S
Zr1745     O1769   2.439       .  S
Zr1745     O1771   2.383       .  S
Zr1745     O1749   2.409       .  S
Zr1745     O1752   2.372       .  S
Zr1746     O1772   2.431       .  S
Zr1746     O1773   2.432       .  S
Zr1746     O1748   2.440       .  S
Zr1746     O1749   2.425   1_565  S
Zr1746     O1750   2.434       .  S
O1747      H1784   0.990       .  S
O1748      H1779   0.990       .  S
O1748      H1793   0.990       .  S
O1750      H1776   0.966       .  S
O1751     Zr1761   2.374       .  S
O1752     Zr1761   2.372       .  S
O1752      H1777   0.965       .  S
C1753      C1891   1.485       .  S
C1754      C2023   1.473       .  S
C1755      C2781   1.475       .  S
O1756      H1792   0.990       .  S
O1757      C1759   1.285       .  A
O1758      C1759   1.284       .  A
O1760     Zr1761   2.439       .  S
O1760      H1789   0.990       .  S
Zr1761     O1764   2.436       .  S
Zr1761     O1765   2.438       .  S
Zr1761     O1766   2.460       .  S
O1762      C1767   1.276       .  A
O1763      H1780   0.990   1_565  S
O1763      H1795   0.990       .  S
O1764      H1781   0.990       .  S
O1765      H1785   0.990       .  S
O1765      H1794   0.990       .  S
O1766      C1767   1.293       .  A
O1768      H1787   0.990       .  S
O1768      H1791   0.990       .  S
O1769      H1783   0.991       .  S
O1769      H1790   0.989       .  S
O1770      C1774   1.290       .  A
O1771      C1774   1.275       .  A
O1772      H1782   0.989       .  S
O1773      H1786   0.990       .  S
C1774      C2761   1.471       .  S
Zr1797     O1798   2.448       .  S
Zr1797     O1799   2.489       .  S
Zr1797     O1800   2.481       .  S
Zr1797     O1803   2.446       .  S
Zr1797     O1805   2.396       .  S
Zr1797     O1806   2.416       .  S
Zr1797     O1807   2.427       .  S
Zr1797     O1808   2.427       .  S
O1798      H1854   0.991       .  S
O1798      H1862   0.991       .  S
O1799      C1819   1.280       .  A
O1800      C1821   1.291       .  A
O1801     Zr1811   2.477       .  S
O1801      C1820   1.298       .  A
O1802     Zr1810   2.432       .  S
O1802      C1821   1.286       .  A
O1803      C1820   1.282       .  A
O1804     Zr1812   2.387       .  S
O1804      C1819   1.263       .  A
O1805     Zr1810   2.400       .  S
O1805     Zr1812   2.388       .  S
O1806     Zr1811   2.391       .  S
O1806     Zr1812   2.389       .  S
O1806      H1841   0.965       .  S
O1807     Zr1810   2.411       .  S
O1807     Zr1827   2.392       .  S
O1807      H1844   0.963       .  S
O1808     Zr1811   2.389       .  S
O1808     Zr1827   2.392       .  S
Zr1809     O1834   2.441   1_556  S
Zr1809     O1828   2.476       .  S
Zr1809     O1836   2.503   1_556  S
Zr1809     O1824   2.472       .  S
Zr1809     O1815   2.400       .  S
Zr1809     O1816   2.416       .  S
Zr1809     O1817   2.371       .  S
Zr1809     O1818   2.399       .  S
Zr1810     O1829   2.438       .  S
Zr1810     O1822   2.436       .  S
Zr1810     O1823   2.437       .  S
Zr1810     O1816   2.412       .  S
Zr1810     O1817   2.392       .  S
Zr1811     O1813   2.437   1_556  S
Zr1811     O1835   2.439   1_556  S
Zr1811     O1837   2.465   1_556  S
Zr1811     O1815   2.398       .  S
Zr1811     O1818   2.409       .  S
Zr1812     O1838   2.423       .  S
Zr1812     O1839   2.435       .  S
Zr1812     O1814   2.443       .  S
Zr1812     O1815   2.383       .  S
Zr1812     O1816   2.370       .  S
O1813      H1850   0.989       .  S
O1814      H1845   0.990       .  S
O1814      H1859   0.990       .  S
O1816      H1842   0.963       .  S
O1817     Zr1827   2.368       .  S
O1818     Zr1827   2.386       .  S
O1818      H1843   0.966       .  S
C1819      C2229   1.480       .  S
C1820      C2479   1.486       .  S
C1821      C1906   1.485       .  S
O1822      H1858   0.990       .  S
O1823      C1825   1.283       .  A
O1824      C1825   1.293       .  A
O1826     Zr1827   2.435       .  S
O1826      H1855   0.990       .  S
Zr1827     O1830   2.437       .  S
Zr1827     O1831   2.439       .  S
Zr1827     O1832   2.409       .  S
O1828      C1833   1.291       .  A
O1829      H1846   0.991       .  S
O1829      H1861   0.990       .  S
O1830      H1847   0.990       .  S
O1831      H1851   0.990       .  S
O1831      H1860   0.990       .  S
O1832      C1833   1.276       .  A
C1833      C1965   1.475       .  S
O1834      H1853   0.990       .  S
O1834      H1857   0.990       .  S
O1835      H1849   0.990       .  S
O1835      H1856   0.990       .  S
O1838      H1848   0.990   1_556  S
O1839      H1852   0.990       .  S
C1840      C1887   1.529       .  S
Zr1863     O1864   2.442       .  S
Zr1863     O1865   2.519       .  S
Zr1863     O1866   2.512       .  S
Zr1863     O1869   2.474       .  S
Zr1863     O1871   2.412       .  S
Zr1863     O1872   2.419       .  S
Zr1863     O1873   2.432       .  S
Zr1863     O1874   2.417       .  S
O1864      H1920   0.990       .  S
O1864      H1928   0.991       .  S
O1865      C1885   1.290       .  A
O1866      C1887   1.300       .  A
O1867     Zr1877   2.444       .  S
O1867      C1886   1.290       .  A
O1868     Zr1876   2.503       .  S
O1868      C1887   1.297       .  A
O1869      C1886   1.290       .  A
O1870     Zr1878   2.362       .  S
O1870      C1885   1.260       .  A
O1871     Zr1876   2.419       .  S
O1871     Zr1878   2.410       .  S
O1872     Zr1877   2.386       .  S
O1872     Zr1878   2.384       .  S
O1872      H1907   0.965       .  S
O1873     Zr1876   2.408       .  S
O1873     Zr1893   2.395       .  S
O1873      H1910   0.963       .  S
O1874     Zr1877   2.389       .  S
O1874     Zr1893   2.384       .  S
Zr1875     O1900   2.448       .  S
Zr1875     O1894   2.455       .  S
Zr1875     O1902   2.448       .  S
Zr1875     O1890   2.430       .  S
Zr1875     O1881   2.390       .  S
Zr1875     O1882   2.427       .  S
Zr1875     O1883   2.393       .  S
Zr1875     O1884   2.391       .  S
Zr1876     O1895   2.439       .  S
Zr1876     O1888   2.434       .  S
Zr1876     O1889   2.510       .  S
Zr1876     O1882   2.410       .  S
Zr1876     O1883   2.395       .  S
Zr1877     O1879   2.434       .  S
Zr1877     O1901   2.442       .  S
Zr1877     O1903   2.466       .  S
Zr1877     O1881   2.371       .  S
Zr1877     O1884   2.403       .  S
Zr1878     O1904   2.434       .  S
Zr1878     O1905   2.436       .  S
Zr1878     O1880   2.443       .  S
Zr1878     O1881   2.367       .  S
Zr1878     O1882   2.363       .  S
O1879      H1916   0.990       .  S
O1880      H1911   0.990       .  S
O1880      H1925   0.990       .  S
O1882      H1908   0.959       .  S
O1883     Zr1893   2.382       .  S
O1884     Zr1893   2.391       .  S
O1884      H1909   0.966       .  S
C1885      C2282   1.492       .  S
C1886      C2545   1.480       .  S
O1888      H1924   0.990       .  S
O1889      C1891   1.306       .  A
O1890      C1891   1.279       .  A
O1892     Zr1893   2.439       .  S
O1892      H1921   0.990       .  S
Zr1893     O1896   2.440       .  S
Zr1893     O1897   2.440       .  S
Zr1893     O1898   2.404       .  S
O1894      C1899   1.285       .  A
O1895      H1912   0.990       .  S
O1895      H1927   0.990       .  S
O1896      H1913   0.991       .  S
O1897      H1917   0.990       .  S
O1897      H1926   0.990       .  S
O1898      C1899   1.275       .  A
C1899      C2031   1.459       .  S
O1900      H1919   0.990       .  S
O1900      H1923   0.991       .  S
O1901      H1915   0.990       .  S
O1901      H1922   0.990       .  S
O1902      C1906   1.286       .  A
O1903      C1906   1.289       .  A
O1904      H1914   0.989       .  S
O1905      H1918   0.990       .  S
Zr1929     O1930   2.444       .  S
Zr1929     O1931   2.503   1_565  S
Zr1929     O1932   2.494       .  S
Zr1929     O1935   2.423       .  S
Zr1929     O1937   2.389       .  S
Zr1929     O1939   2.426       .  S
O1930      H1986   0.989       .  S
O1930      H1994   0.991       .  S
O1931      C1951   1.295       .  A
O1932      C1953   1.293       .  A
O1933     Zr1943   2.464       .  S
O1933      C1952   1.296       .  A
O1934     Zr1942   2.450       .  S
O1934      C1953   1.288       .  A
O1936      C1951   1.268       .  A
O1937     Zr1942   2.403       .  S
O1938     Zr1943   2.371       .  S
O1938     Zr1944   2.389   1_565  S
O1938      H1973   0.964       .  S
O1939     Zr1942   2.401       .  S
O1939      H1976   0.964       .  S
O1940     Zr1943   2.386       .  S
O1940     Zr1959   2.398       .  S
Zr1941     O1966   2.441       .  S
Zr1941     O1960   2.462       .  S
Zr1941     O1968   2.510       .  S
Zr1941     O1956   2.439       .  S
Zr1941     O1947   2.387       .  S
Zr1941     O1948   2.421       .  S
Zr1941     O1949   2.381       .  S
Zr1941     O1950   2.394       .  S
Zr1942     O1961   2.440       .  S
Zr1942     O1954   2.437       .  S
Zr1942     O1955   2.439       .  S
Zr1943     O1945   2.436       .  S
Zr1943     O1967   2.439       .  S
Zr1943     O1969   2.466       .  S
Zr1943     O1947   2.380       .  S
Zr1943     O1950   2.407       .  S
Zr1944     O1970   2.436       .  S
Zr1944     O1971   2.440       .  S
Zr1944     O1947   2.372   1_545  S
Zr1944     O1948   2.353   1_545  S
O1945      H1982   0.990       .  S
O1946      H1991   0.989       .  S
O1948      H1974   0.964       .  S
O1949     Zr1959   2.366       .  S
O1950     Zr1959   2.386       .  S
O1950      H1975   0.966       .  S
C1951      C2348   1.466       .  S
C1953      C2038   1.498       .  S
O1954      H1990   0.991       .  S
O1956      C1957   1.290       .  A
O1958      H1987   0.990       .  S
Zr1959     O1963   2.441       .  S
Zr1959     O1964   2.437       .  S
O1960      C1965   1.288       .  A
O1961      H1978   0.990       .  S
O1961      H1993   0.990       .  S
O1962      H1979   0.990       .  S
O1963      H1983   0.990       .  S
O1963      H1992   0.990       .  S
O1964      C1965   1.282       .  A
O1966      H1985   0.990       .  S
O1966      H1989   0.990       .  S
O1967      H1981   0.990       .  S
O1967      H1988   0.990       .  S
O1968      C1972   1.299       .  A
O1969      C1972   1.293       .  A
O1970      H1980   0.990       .  S
O1971      H1984   0.990       .  S
C1972      C2019   1.518       .  S
Zr1995     O1996   2.445       .  S
Zr1995     O1997   2.507   1_565  S
Zr1995     O1998   2.491       .  S
Zr1995     O2001   2.472       .  S
Zr1995     O2003   2.399       .  S
Zr1995     O2004   2.394       .  S
Zr1995     O2005   2.432       .  S
Zr1995     O2006   2.420       .  S
O1996      H2052   0.991       .  S
O1996      H2060   0.990       .  S
O1997      C2017   1.294       .  A
O1998      C2019   1.295       .  A
O1999     Zr2009   2.443       .  S
O1999      C2018   1.289       .  A
O2000     Zr2008   2.511       .  S
O2000      C2019   1.299       .  A
O2001      C2018   1.289       .  A
O2002     Zr2010   2.336       .  S
O2002      C2017   1.266       .  A
O2003     Zr2008   2.422       .  S
O2003     Zr2010   2.400   1_565  S
O2004     Zr2009   2.390       .  S
O2004     Zr2010   2.379   1_565  S
O2004      H2039   0.965       .  S
O2005     Zr2008   2.413       .  S
O2005     Zr2025   2.384       .  S
O2005      H2042   0.962       .  S
O2006     Zr2009   2.394       .  S
O2006     Zr2025   2.390       .  S
Zr2007     O2032   2.443       .  S
Zr2007     O2026   2.444       .  S
Zr2007     O2034   2.464       .  S
Zr2007     O2022   2.410       .  S
Zr2007     O2013   2.377       .  S
Zr2007     O2014   2.425       .  S
Zr2007     O2015   2.389       .  S
Zr2007     O2016   2.380       .  S
Zr2008     O2027   2.441       .  S
Zr2008     O2020   2.438   1_565  S
Zr2008     O2021   2.514       .  S
Zr2008     O2014   2.412       .  S
Zr2008     O2015   2.398       .  S
Zr2009     O2011   2.433       .  S
Zr2009     O2033   2.440       .  S
Zr2009     O2035   2.483       .  S
Zr2009     O2013   2.367       .  S
Zr2009     O2016   2.405       .  S
Zr2010     O2036   2.436       .  S
Zr2010     O2037   2.436       .  S
Zr2010     O2012   2.439       .  S
Zr2010     O2013   2.359   1_545  S
Zr2010     O2014   2.355   1_545  S
O2011      H2048   0.990       .  S
O2012      H2043   0.990       .  S
O2012      H2057   0.990       .  S
O2014      H2040   0.963       .  S
O2015     Zr2025   2.382       .  S
O2016     Zr2025   2.388       .  S
O2016      H2041   0.966       .  S
C2017      C2414   1.468       .  S
C2018      C2149   1.476       .  S
O2020      H2056   0.990   1_545  S
O2021      C2023   1.306       .  A
O2022      C2023   1.275       .  A
O2024     Zr2025   2.444       .  S
O2024      H2053   0.989       .  S
Zr2025     O2028   2.437       .  S
Zr2025     O2029   2.441       .  S
Zr2025     O2030   2.408       .  S
O2026      C2031   1.282       .  A
O2027      H2044   0.990       .  S
O2027      H2059   0.990       .  S
O2028      H2045   0.991       .  S
O2029      H2049   0.990       .  S
O2029      H2058   0.990       .  S
O2030      C2031   1.276       .  A
O2032      H2051   0.991       .  S
O2032      H2055   0.991       .  S
O2033      H2047   0.991       .  S
O2033      H2054   0.990       .  S
O2034      C2038   1.291       .  A
O2035      C2038   1.294       .  A
O2036      H2046   0.990       .  S
O2037      H2050   0.990       .  S
Zr2061     O2062   2.446       .  S
Zr2061     O2063   2.532   1_655  S
Zr2061     O2064   2.490       .  S
Zr2061     O2067   2.425       .  S
Zr2061     O2069   2.381       .  S
Zr2061     O2071   2.433       .  S
O2062      H2118   0.991       .  S
O2062      H2126   0.990       .  S
O2063      C2083   1.301       .  A
O2064      C2085   1.293       .  A
O2065     Zr2075   2.477       .  S
O2065      C2084   1.297       .  A
O2066     Zr2074   2.434       .  S
O2066      C2085   1.285       .  A
O2068      C2083   1.265       .  A
O2069     Zr2074   2.401       .  S
O2070     Zr2075   2.373       .  S
O2070     Zr2076   2.399   1_655  S
O2070      H2105   0.965       .  S
O2071     Zr2074   2.391       .  S
O2071      H2108   0.963       .  S
O2072     Zr2075   2.383       .  S
O2072     Zr2091   2.419       .  S
Zr2073     O2098   2.432       .  S
Zr2073     O2092   2.457       .  S
Zr2073     O2100   2.510       .  S
Zr2073     O2088   2.473       .  S
Zr2073     O2079   2.380       .  S
Zr2073     O2080   2.419       .  S
Zr2073     O2081   2.386       .  S
Zr2073     O2082   2.404       .  S
Zr2074     O2093   2.439       .  S
Zr2074     O2086   2.435       .  S
Zr2074     O2087   2.409       .  S
Zr2075     O2077   2.434       .  S
Zr2075     O2099   2.440       .  S
Zr2075     O2101   2.464       .  S
Zr2075     O2079   2.388       .  S
Zr2075     O2082   2.411       .  S
Zr2076     O2102   2.437       .  S
Zr2076     O2103   2.442       .  S
Zr2076     O2078   2.440       .  S
Zr2076     O2079   2.361   1_455  S
Zr2076     O2080   2.358   1_455  S
O2077      H2114   0.990       .  S
O2078      H2109   0.990       .  S
O2080      H2106   0.964       .  S
O2081     Zr2091   2.361       .  S
O2082     Zr2091   2.385       .  S
O2082      H2107   0.966       .  S
C2085      C2170   1.494       .  S
O2086      H2122   0.991       .  S
O2088      C2089   1.293       .  A
C2089      C2625   1.466       .  S
O2090      H2119   0.990       .  S
Zr2091     O2095   2.439       .  S
Zr2091     O2096   2.469       .  S
O2092      C2097   1.287       .  A
O2093      H2110   0.990       .  S
O2093      H2125   0.990       .  S
O2094      H2111   0.990       .  S
O2095      H2115   0.990       .  S
O2095      H2124   0.990       .  S
O2096      C2097   1.289       .  A
C2097      C2216   1.495       .  S
O2098      H2117   0.990       .  S
O2098      H2121   0.990       .  S
O2099      H2113   0.990       .  S
O2099      H2120   0.990       .  S
O2100      C2104   1.300       .  A
O2101      C2104   1.292       .  A
O2102      H2112   0.990       .  S
O2103      H2116   0.990       .  S
C2104      C2151   1.512       .  S
Zr2127     O2128   2.445       .  S
Zr2127     O2129   2.498   1_655  S
Zr2127     O2130   2.489       .  S
Zr2127     O2133   2.424       .  S
Zr2127     O2135   2.373       .  S
Zr2127     O2136   2.411       .  S
Zr2127     O2137   2.427       .  S
Zr2127     O2138   2.420       .  S
O2128      H2184   0.990       .  S
O2128      H2192   0.991       .  S
O2129      C2149   1.289       .  A
O2130      C2151   1.294       .  A
O2131     Zr2141   2.458       .  S
O2131      C2150   1.296       .  A
O2132     Zr2140   2.471       .  S
O2132      C2151   1.290       .  A
O2133      C2150   1.279       .  A
O2134     Zr2142   2.382       .  S
O2134      C2149   1.268       .  A
O2135     Zr2140   2.408       .  S
O2135     Zr2142   2.402   1_655  S
O2136     Zr2141   2.395       .  S
O2136     Zr2142   2.374   1_655  S
O2136      H2171   0.966       .  S
O2137     Zr2140   2.387       .  S
O2137     Zr2157   2.404       .  S
O2137      H2174   0.964       .  S
O2138     Zr2141   2.377       .  S
O2138     Zr2157   2.378       .  S
Zr2139     O2164   2.446       .  S
Zr2139     O2158   2.492       .  S
Zr2139     O2166   2.470       .  S
Zr2139     O2154   2.455       .  S
Zr2139     O2145   2.400       .  S
Zr2139     O2146   2.425       .  S
Zr2139     O2147   2.384       .  S
Zr2139     O2148   2.391       .  S
Zr2140     O2159   2.436       .  S
Zr2140     O2152   2.408       .  S
Zr2140     O2153   2.439       .  S
Zr2140     O2146   2.410       .  S
Zr2140     O2147   2.367       .  S
Zr2141     O2143   2.436       .  S
Zr2141     O2165   2.439       .  S
Zr2141     O2167   2.457       .  S
Zr2141     O2145   2.384       .  S
Zr2141     O2148   2.404       .  S
Zr2142     O2168   2.437       .  S
Zr2142     O2169   2.439       .  S
Zr2142     O2144   2.443       .  S
Zr2142     O2145   2.379   1_455  S
Zr2142     O2146   2.360   1_455  S
O2143      H2180   0.990       .  S
O2144      H2175   0.990       .  S
O2144      H2189   0.990       .  S
O2146      H2172   0.962       .  S
O2147     Zr2157   2.373       .  S
O2148     Zr2157   2.391       .  S
O2148      H2173   0.966       .  S
O2152      H2188   0.989       .  S
O2153      C2155   1.289       .  A
O2154      C2155   1.287       .  A
C2155      C2677   1.468       .  S
O2156     Zr2157   2.437       .  S
O2156      H2185   0.990       .  S
Zr2157     O2160   2.436       .  S
Zr2157     O2161   2.443       .  S
Zr2157     O2162   2.404       .  S
O2158      C2163   1.293       .  A
O2159      H2176   0.990       .  S
O2159      H2191   0.990       .  S
O2160      H2177   0.989       .  S
O2161      H2181   0.990       .  S
O2161      H2190   0.990       .  S
O2162      C2163   1.276       .  A
C2163      C2295   1.474       .  S
O2164      H2183   0.991       .  S
O2164      H2187   0.991       .  S
O2165      H2179   0.990       .  S
O2165      H2186   0.990       .  S
O2166      C2170   1.291       .  A
O2167      C2170   1.289       .  A
O2168      H2178   0.991       .  S
O2169      H2182   0.990       .  S
Zr2193     O2194   2.443   1_556  S
Zr2193     O2195   2.456       .  S
Zr2193     O2199   2.470       .  S
Zr2193     O2201   2.387       .  S
Zr2193     O2202   2.403       .  S
Zr2193     O2203   2.409   1_556  S
Zr2193     O2204   2.421       .  S
O2195      C2215   1.286       .  A
O2196      C2217   1.297       .  A
O2197     Zr2207   2.461       .  S
O2197      C2216   1.290       .  A
O2198      C2217   1.291       .  A
O2199      C2216   1.292       .  A
O2200     Zr2208   2.372       .  S
O2200      C2215   1.271       .  A
O2201     Zr2206   2.397       .  S
O2201     Zr2208   2.388       .  S
O2202     Zr2207   2.397       .  S
O2202     Zr2208   2.378       .  S
O2202      H2237   0.966       .  S
O2203     Zr2206   2.394   1_554  S
O2203     Zr2223   2.399   1_554  S
O2203      H2240   0.966       .  S
O2204     Zr2207   2.400       .  S
O2204     Zr2223   2.392       .  S
Zr2205     O2230   2.438       .  S
Zr2205     O2224   2.459       .  S
Zr2205     O2232   2.520       .  S
Zr2205     O2220   2.527       .  S
Zr2205     O2211   2.413       .  S
Zr2205     O2212   2.420       .  S
Zr2205     O2213   2.407       .  S
Zr2205     O2214   2.406       .  S
Zr2206     O2225   2.439   1_556  S
Zr2206     O2218   2.435   1_556  S
Zr2206     O2219   2.424       .  S
Zr2206     O2212   2.410       .  S
Zr2206     O2213   2.407       .  S
Zr2207     O2209   2.440       .  S
Zr2207     O2231   2.436       .  S
Zr2207     O2233   2.460       .  S
Zr2207     O2211   2.401       .  S
Zr2207     O2214   2.389       .  S
Zr2208     O2234   2.434       .  S
Zr2208     O2235   2.438       .  S
Zr2208     O2210   2.441       .  S
Zr2208     O2211   2.387       .  S
Zr2208     O2212   2.369       .  S
O2209      H2246   0.990       .  S
O2210      H2241   0.990       .  S
O2210      H2255   0.990       .  S
O2212      H2238   0.964       .  S
O2213     Zr2223   2.378       .  S
O2214     Zr2223   2.377       .  S
O2214      H2239   0.966       .  S
C2215      C2617   1.448       .  S
C2217      C2283   1.520       .  S
O2218      H2254   0.990       .  S
O2219      C2221   1.286       .  A
O2220      C2221   1.302       .  A
O2222     Zr2223   2.436   1_554  S
O2222      H2251   0.991       .  S
Zr2223     O2226   2.431   1_556  S
Zr2223     O2227   2.439       .  S
Zr2223     O2228   2.433       .  S
O2224      C2229   1.287       .  A
O2226      H2243   0.990   1_554  S
O2227      H2247   0.989       .  S
O2227      H2256   0.991       .  S
O2228      C2229   1.286       .  A
O2230      H2249   0.991       .  S
O2230      H2253   0.990       .  S
O2231      H2245   0.991       .  S
O2231      H2252   0.990       .  S
O2232      C2236   1.302       .  A
O2233      C2236   1.291       .  A
O2234      H2244   0.990       .  S
O2235      H2248   0.990       .  S
C2236      C2302   1.520       .  S
Zr2259     O2260   2.445       .  S
Zr2259     O2261   2.518       .  S
Zr2259     O2262   2.494       .  S
Zr2259     O2265   2.433       .  S
Zr2259     O2267   2.383       .  S
Zr2259     O2268   2.399       .  S
Zr2259     O2269   2.433       .  S
Zr2259     O2270   2.429       .  S
O2260      H2316   0.990       .  S
O2260      H2324   0.991       .  S
O2261      C2281   1.297       .  A
O2262      C2283   1.294       .  A
O2263     Zr2273   2.517       .  S
O2263      C2282   1.304       .  A
O2264     Zr2272   2.502       .  S
O2264      C2283   1.297       .  A
O2265      C2282   1.279       .  A
O2266     Zr2274   2.349       .  S
O2266      C2281   1.267       .  A
O2267     Zr2272   2.416       .  S
O2267     Zr2274   2.402       .  S
O2268     Zr2273   2.403       .  S
O2268     Zr2274   2.389       .  S
O2268      H2303   0.965       .  S
O2269     Zr2272   2.401       .  S
O2269     Zr2289   2.399       .  S
O2269      H2306   0.963       .  S
O2270     Zr2273   2.385       .  S
O2270     Zr2289   2.398       .  S
Zr2271     O2296   2.445       .  S
Zr2271     O2290   2.459       .  S
Zr2271     O2298   2.492       .  S
Zr2271     O2286   2.437       .  S
Zr2271     O2277   2.383       .  S
Zr2271     O2278   2.432       .  S
Zr2271     O2279   2.394       .  S
Zr2271     O2280   2.393       .  S
Zr2272     O2291   2.437       .  S
Zr2272     O2284   2.436       .  S
Zr2272     O2285   2.476       .  S
Zr2272     O2278   2.422       .  S
Zr2272     O2279   2.387       .  S
Zr2273     O2275   2.437       .  S
Zr2273     O2297   2.435       .  S
Zr2273     O2299   2.511       .  S
Zr2273     O2277   2.383       .  S
Zr2273     O2280   2.414       .  S
Zr2274     O2300   2.437       .  S
Zr2274     O2301   2.438       .  S
Zr2274     O2276   2.440       .  S
Zr2274     O2277   2.367       .  S
Zr2274     O2278   2.360       .  S
O2275      H2312   0.991       .  S
O2276      H2307   0.990       .  S
O2276      H2321   0.990       .  S
O2278      H2304   0.963       .  S
O2279     Zr2289   2.367       .  S
O2280     Zr2289   2.393       .  S
O2280      H2305   0.965       .  S
O2284      H2320   0.989       .  S
O2285      C2287   1.299       .  A
O2286      C2287   1.281       .  A
C2287      C2678   1.471       .  S
O2288     Zr2289   2.438       .  S
O2288      H2317   0.990       .  S
Zr2289     O2292   2.436       .  S
Zr2289     O2293   2.442       .  S
Zr2289     O2294   2.437       .  S
O2290      C2295   1.287       .  A
O2291      H2308   0.990       .  S
O2291      H2323   0.990       .  S
O2292      H2309   0.990       .  S
O2293      H2313   0.989       .  S
O2293      H2322   0.990       .  S
O2294      C2295   1.280       .  A
O2296      H2315   0.990       .  S
O2296      H2319   0.991       .  S
O2297      H2311   0.990       .  S
O2297      H2318   0.991       .  S
O2298      C2302   1.297       .  A
O2299      C2302   1.299       .  A
O2300      H2310   0.990       .  S
O2301      H2314   0.990       .  S
Zr2325     O2326   2.443       .  S
Zr2325     O2327   2.492   1_455  S
Zr2325     O2328   2.486       .  S
Zr2325     O2331   2.434       .  S
Zr2325     O2333   2.386       .  S
Zr2325     O2335   2.436       .  S
Zr2325     O2336   2.429       .  S
O2326      H2382   0.991       .  S
O2326      H2390   0.990       .  S
O2327      C2347   1.280       .  A
O2328      C2349   1.294       .  A
O2329     Zr2339   2.430       .  S
O2330     Zr2338   2.462       .  S
O2330      C2349   1.288       .  A
O2331      C2348   1.281       .  A
O2332      C2347   1.267       .  A
O2333     Zr2338   2.390       .  S
O2334     Zr2339   2.404       .  S
O2334     Zr2340   2.386   1_455  S
O2334      H2369   0.966       .  S
O2335     Zr2338   2.407       .  S
O2335     Zr2355   2.395       .  S
O2335      H2372   0.963       .  S
O2336     Zr2355   2.396       .  S
Zr2337     O2362   2.444       .  S
Zr2337     O2356   2.488       .  S
Zr2337     O2364   2.472       .  S
Zr2337     O2352   2.428       .  S
Zr2337     O2343   2.404       .  S
Zr2337     O2344   2.416       .  S
Zr2337     O2346   2.380       .  S
Zr2338     O2357   2.448       .  S
Zr2338     O2350   2.412   1_455  S
Zr2338     O2351   2.463       .  S
Zr2338     O2345   2.394       .  S
Zr2339     O2341   2.437       .  S
Zr2339     O2363   2.440       .  S
Zr2339     O2365   2.457       .  S
Zr2339     O2343   2.388       .  S
Zr2339     O2346   2.400       .  S
Zr2340     O2366   2.432       .  S
Zr2340     O2367   2.435       .  S
Zr2340     O2343   2.400   1_655  S
Zr2340     O2344   2.377   1_655  S
O2341      H2378   0.990       .  S
O2342      H2373   0.990       .  S
O2342      H2387   0.990       .  S
O2344      H2370   0.960       .  S
O2345     Zr2355   2.374       .  S
O2346      H2371   0.966       .  S
C2349      C2434   1.499       .  S
O2350      H2386   0.988       .  S
O2351      C2353   1.292       .  A
O2354     Zr2355   2.438       .  S
O2354      H2383   0.990       .  S
Zr2355     O2358   2.437       .  S
O2356      C2361   1.292       .  A
O2357      H2374   0.991       .  S
O2357      H2389   0.989       .  S
O2358      H2375   0.990       .  S
O2359      H2379   0.990       .  S
O2359      H2388   0.990       .  S
O2360      C2361   1.277       .  A
C2361      C2493   1.480       .  S
O2362      H2381   0.990       .  S
O2362      H2385   0.990       .  S
O2363      H2377   0.989       .  S
O2363      H2384   0.989       .  S
O2364      C2368   1.292       .  A
O2365      C2368   1.288       .  A
O2366      H2376   0.989       .  S
O2367      H2380   0.990       .  S
C2368      C2415   1.500       .  S
Zr2391     O2392   2.446       .  S
Zr2391     O2393   2.517   1_455  S
Zr2391     O2394   2.488       .  S
Zr2391     O2397   2.441       .  S
Zr2391     O2399   2.390       .  S
Zr2391     O2400   2.406       .  S
Zr2391     O2401   2.437       .  S
Zr2391     O2402   2.431       .  S
O2392      H2448   0.990       .  S
O2392      H2456   0.990       .  S
O2393      C2413   1.292       .  A
O2394      C2415   1.294       .  A
O2395     Zr2405   2.437       .  S
O2395      C2414   1.290       .  A
O2396     Zr2404   2.464       .  S
O2396      C2415   1.290       .  A
O2397      C2414   1.281       .  A
O2398     Zr2406   2.360   1_655  S
O2398      C2413   1.262       .  A
O2399     Zr2404   2.405       .  S
O2399     Zr2406   2.393       .  S
O2400     Zr2405   2.388       .  S
O2400     Zr2406   2.383       .  S
O2400      H2435   0.966       .  S
O2401     Zr2404   2.400       .  S
O2401     Zr2421   2.398       .  S
O2401      H2438   0.963       .  S
O2402     Zr2405   2.384       .  S
O2402     Zr2421   2.399       .  S
Zr2403     O2428   2.447       .  S
Zr2403     O2422   2.479       .  S
Zr2403     O2430   2.508       .  S
Zr2403     O2418   2.441       .  S
Zr2403     O2409   2.386       .  S
Zr2403     O2410   2.424       .  S
Zr2403     O2411   2.393       .  S
Zr2403     O2412   2.387       .  S
Zr2404     O2423   2.440       .  S
Zr2404     O2416   2.435       .  S
Zr2404     O2417   2.444       .  S
Zr2404     O2410   2.413       .  S
Zr2404     O2411   2.403       .  S
Zr2405     O2407   2.437       .  S
Zr2405     O2429   2.439       .  S
Zr2405     O2431   2.435       .  S
Zr2405     O2409   2.380       .  S
Zr2405     O2412   2.400       .  S
Zr2406     O2432   2.438   1_455  S
Zr2406     O2433   2.421   1_455  S
Zr2406     O2408   2.438   1_455  S
Zr2406     O2409   2.371       .  S
Zr2406     O2410   2.371       .  S
O2407      H2444   0.990       .  S
O2408      H2439   0.991       .  S
O2408      H2453   0.990       .  S
O2410      H2436   0.963       .  S
O2411     Zr2421   2.376       .  S
O2412     Zr2421   2.387       .  S
O2412      H2437   0.965       .  S
O2416      H2452   0.990       .  S
O2417      C2419   1.287       .  A
O2418      C2419   1.286       .  A
C2419      C2691   1.471       .  S
O2420     Zr2421   2.436       .  S
O2420      H2449   0.990       .  S
Zr2421     O2424   2.437       .  S
Zr2421     O2425   2.439       .  S
Zr2421     O2426   2.440       .  S
O2422      C2427   1.291       .  A
O2423      H2440   0.990       .  S
O2423      H2455   0.989       .  S
O2424      H2441   0.989       .  S
O2425      H2445   0.990       .  S
O2425      H2454   0.989       .  S
O2426      C2427   1.283       .  A
C2427      C2559   1.490       .  S
O2428      H2447   0.989       .  S
O2428      H2451   0.990       .  S
O2429      H2443   0.991       .  S
O2429      H2450   0.989       .  S
O2430      C2434   1.298       .  A
O2431      C2434   1.285       .  A
O2432      H2442   0.990       .  S
O2433      H2446   0.990       .  S
Zr2457     O2458   2.443       .  S
Zr2457     O2459   2.539       .  S
Zr2457     O2460   2.516       .  S
Zr2457     O2463   2.437       .  S
Zr2457     O2465   2.374       .  S
Zr2457     O2466   2.393       .  S
Zr2457     O2467   2.432       .  S
Zr2457     O2468   2.436       .  S
O2458      H2514   0.990       .  S
O2458      H2522   0.990       .  S
O2459      C2479   1.302       .  A
O2460      C2481   1.300       .  A
O2461     Zr2471   2.450       .  S
O2461      C2480   1.291       .  A
O2462     Zr2470   2.449       .  S
O2462      C2481   1.286       .  A
O2463      C2480   1.282       .  A
O2464     Zr2472   2.344       .  S
O2464      C2479   1.267       .  A
O2465     Zr2470   2.412       .  S
O2465     Zr2472   2.396       .  S
O2466     Zr2471   2.399       .  S
O2466     Zr2472   2.376       .  S
O2466      H2501   0.965       .  S
O2467     Zr2470   2.399       .  S
O2467     Zr2487   2.395       .  S
O2467      H2504   0.962       .  S
O2468     Zr2471   2.389       .  S
O2468     Zr2487   2.400       .  S
Zr2469     O2488   2.460       .  S
Zr2469     O2484   2.411       .  S
Zr2469     O2475   2.382       .  S
Zr2469     O2476   2.423       .  S
Zr2469     O2477   2.384       .  S
Zr2469     O2478   2.387       .  S
Zr2470     O2489   2.438       .  S
Zr2470     O2482   2.433       .  S
Zr2470     O2483   2.453       .  S
Zr2470     O2476   2.404       .  S
Zr2470     O2477   2.393       .  S
Zr2471     O2473   2.437   1_556  S
Zr2471     O2475   2.370       .  S
Zr2471     O2478   2.406       .  S
Zr2472     O2498   2.436   1_556  S
Zr2472     O2499   2.437   1_556  S
Zr2472     O2474   2.440       .  S
Zr2472     O2475   2.367       .  S
Zr2472     O2476   2.353       .  S
O2474      H2505   0.990       .  S
O2474      H2519   0.990       .  S
O2476      H2502   0.962       .  S
O2477     Zr2487   2.371       .  S
O2478     Zr2487   2.389       .  S
O2478      H2503   0.966       .  S
C2481      C2566   1.505       .  S
O2482      H2518   0.990       .  S
O2483      C2485   1.291       .  A
O2484      C2485   1.281       .  A
C2485      C2612   1.453       .  S
O2486     Zr2487   2.439       .  S
O2486      H2515   0.991       .  S
Zr2487     O2490   2.436       .  S
Zr2487     O2491   2.439       .  S
Zr2487     O2492   2.442       .  S
O2488      C2493   1.286       .  A
O2489      H2506   0.990       .  S
O2489      H2521   0.990       .  S
O2490      H2507   0.990       .  S
O2491      H2511   0.990       .  S
O2491      H2520   0.990       .  S
O2492      C2493   1.283       .  A
O2494      H2513   0.990       .  S
O2495      H2509   0.990       .  S
O2496      C2500   1.292       .  A
O2497      C2500   1.294       .  A
O2498      H2508   0.990       .  S
O2499      H2512   0.990       .  S
C2500      C2547   1.497       .  S
Zr2523     O2524   2.447       .  S
Zr2523     O2525   2.517       .  S
Zr2523     O2526   2.490       .  S
Zr2523     O2529   2.443       .  S
Zr2523     O2531   2.390       .  S
Zr2523     O2532   2.399       .  S
Zr2523     O2533   2.441       .  S
Zr2523     O2534   2.429       .  S
O2524      H2580   0.991       .  S
O2524      H2588   0.991       .  S
O2525      C2545   1.296       .  A
O2526      C2547   1.292       .  A
O2527     Zr2537   2.417       .  S
O2527      C2546   1.286       .  A
O2528     Zr2536   2.452       .  S
O2528      C2547   1.288       .  A
O2529      C2546   1.282       .  A
O2530     Zr2538   2.370       .  S
O2530      C2545   1.272       .  A
O2531     Zr2536   2.414       .  S
O2531     Zr2538   2.394       .  S
O2532     Zr2537   2.383       .  S
O2532     Zr2538   2.379       .  S
O2532      H2567   0.965       .  S
O2533     Zr2536   2.399       .  S
O2533     Zr2553   2.400       .  S
O2533      H2570   0.962       .  S
O2534     Zr2537   2.386       .  S
O2534     Zr2553   2.398       .  S
Zr2535     O2560   2.442       .  S
Zr2535     O2554   2.472       .  S
Zr2535     O2562   2.510       .  S
Zr2535     O2550   2.422       .  S
Zr2535     O2541   2.395       .  S
Zr2535     O2542   2.430       .  S
Zr2535     O2543   2.396       .  S
Zr2535     O2544   2.386       .  S
Zr2536     O2555   2.438       .  S
Zr2536     O2548   2.436       .  S
Zr2536     O2549   2.459       .  S
Zr2536     O2542   2.406       .  S
Zr2536     O2543   2.398       .  S
Zr2537     O2539   2.438       .  S
Zr2537     O2561   2.438       .  S
Zr2537     O2563   2.436       .  S
Zr2537     O2541   2.381       .  S
Zr2537     O2544   2.404       .  S
Zr2538     O2564   2.433       .  S
Zr2538     O2565   2.436       .  S
Zr2538     O2540   2.437       .  S
Zr2538     O2541   2.386       .  S
Zr2538     O2542   2.357       .  S
O2539      H2576   0.990       .  S
O2540      H2571   0.990       .  S
O2540      H2585   0.990       .  S
O2542      H2568   0.964       .  S
O2543     Zr2553   2.373       .  S
O2544     Zr2553   2.384       .  S
O2544      H2569   0.966       .  S
O2548      H2584   0.990       .  S
O2549      C2551   1.289       .  A
O2550      C2551   1.284       .  A
C2551      C2683   1.460       .  S
O2552     Zr2553   2.440       .  S
O2552      H2581   0.991       .  S
Zr2553     O2556   2.436       .  S
Zr2553     O2557   2.437       .  S
Zr2553     O2558   2.446       .  S
O2554      C2559   1.289       .  A
O2555      H2572   0.990       .  S
O2555      H2587   0.991       .  S
O2556      H2573   0.990       .  S
O2557      H2577   0.990       .  S
O2557      H2586   0.990       .  S
O2558      C2559   1.284       .  A
O2560      H2579   0.990       .  S
O2560      H2583   0.990       .  S
O2561      H2575   0.990       .  S
O2561      H2582   0.990       .  S
O2562      C2566   1.299       .  A
O2563      C2566   1.283       .  A
O2564      H2574   0.990       .  S
O2565      H2578   0.990       .  S
Zr2589     O2595   2.441   1_554  S
Zr2589     O2597   2.338   1_454  S
Zr2589     O2598   2.379   1_554  S
Zr2589     O2600   2.366   1_554  S
O2590      H2646   0.991       .  S
O2590      H2654   0.989       .  S
O2592      C2613   1.284   1_455  A
O2593     Zr2603   2.408       .  S
O2593      C2612   1.280       .  A
O2594     Zr2602   2.415       .  S
O2594      C2613   1.276       .  A
O2595      C2612   1.287       .  A
O2596     Zr2604   2.502   1_455  S
O2596      C2611   1.297       .  A
O2597     Zr2604   2.341       .  S
O2598     Zr2603   2.413       .  S
O2598     Zr2604   2.348   1_455  S
O2598      H2633   0.964       .  S
O2599     Zr2602   2.412       .  S
O2599      H2636   0.966       .  S
O2600     Zr2603   2.416       .  S
O2600     Zr2619   2.433   1_556  S
Zr2601     O2626   2.440       .  S
Zr2601     O2620   2.404       .  S
Zr2601     O2628   2.440       .  S
Zr2601     O2616   2.412       .  S
Zr2601     O2607   2.418   1_655  S
Zr2601     O2608   2.429       .  S
Zr2601     O2609   2.393       .  S
Zr2601     O2610   2.371   1_655  S
Zr2602     O2621   2.436       .  S
Zr2602     O2614   2.437       .  S
Zr2603     O2605   2.436       .  S
Zr2603     O2627   2.438       .  S
Zr2603     O2629   2.425       .  S
Zr2603     O2607   2.410       .  S
Zr2603     O2610   2.378       .  S
Zr2604     O2630   2.435   1_655  S
Zr2604     O2631   2.437       .  S
Zr2604     O2606   2.423       .  S
Zr2604     O2607   2.408   1_655  S
Zr2604     O2608   2.417       .  S
O2605      H2642   0.990       .  S
O2606      H2637   0.990       .  S
O2606      H2651   0.990       .  S
O2608      H2634   0.967       .  S
O2609     Zr2619   2.377   1_656  S
O2610     Zr2619   2.352   1_556  S
O2610      H2635   0.963       .  S
C2613      C2741   1.483       .  S
O2614      H2650   0.990       .  S
O2615      C2617   1.280   1_554  A
O2616      C2617   1.282       .  A
O2618      H2647   0.990       .  S
Zr2619     O2623   2.443       .  S
Zr2619     O2624   2.452   1_455  S
O2620      C2625   1.280       .  A
O2621      H2638   0.990       .  S
O2621      H2653   0.990       .  S
O2622      H2639   0.990       .  S
O2623      H2643   0.990   1_554  S
O2623      H2652   0.990       .  S
O2624      C2625   1.290   1_554  A
O2626      H2645   0.990       .  S
O2626      H2649   0.990       .  S
O2627      H2641   0.990       .  S
O2627      H2648   0.990       .  S
O2628      C2632   1.287   1_655  A
O2629      C2632   1.285       .  A
O2630      H2640   0.990       .  S
O2631      H2644   0.990       .  S
C2632      C2721   1.477       .  S
Zr2655     O2656   2.434       .  S
Zr2655     O2657   2.366       .  S
Zr2655     O2658   2.462   1_655  S
Zr2655     O2661   2.512       .  S
Zr2655     O2663   2.347   1_655  S
Zr2655     O2664   2.371       .  S
Zr2655     O2665   2.428   1_655  S
Zr2655     O2666   2.373       .  S
O2656      H2712   0.990       .  S
O2656      H2720   0.990       .  S
O2657      C2677   1.272       .  A
O2658      C2679   1.289       .  A
O2659     Zr2669   2.356       .  S
O2659      C2678   1.270       .  A
O2660     Zr2668   2.388       .  S
O2660      C2679   1.272       .  A
O2661      C2678   1.299       .  A
O2662     Zr2670   2.485   1_655  S
O2662      C2677   1.290       .  A
O2663     Zr2668   2.355       .  S
O2663     Zr2670   2.338       .  S
O2664     Zr2669   2.388       .  S
O2664     Zr2670   2.353   1_655  S
O2664      H2699   0.963       .  S
O2665     Zr2668   2.419       .  S
O2665     Zr2685   2.424   1_455  S
O2665      H2702   0.966       .  S
O2666     Zr2669   2.411       .  S
O2666     Zr2685   2.431       .  S
Zr2667     O2692   2.439       .  S
Zr2667     O2686   2.422       .  S
Zr2667     O2694   2.459   1_455  S
Zr2667     O2682   2.414       .  S
Zr2667     O2673   2.409   1_455  S
Zr2667     O2674   2.436       .  S
Zr2667     O2675   2.401       .  S
Zr2667     O2676   2.372   1_455  S
Zr2668     O2687   2.441       .  S
Zr2668     O2680   2.435       .  S
Zr2668     O2681   2.439       .  S
Zr2668     O2674   2.377       .  S
Zr2668     O2675   2.342       .  S
Zr2669     O2671   2.435       .  S
Zr2669     O2693   2.439       .  S
Zr2669     O2695   2.369       .  S
Zr2669     O2673   2.395       .  S
Zr2669     O2676   2.372       .  S
Zr2670     O2696   2.429   1_455  S
Zr2670     O2697   2.433       .  S
Zr2670     O2672   2.441       .  S
Zr2670     O2673   2.410   1_455  S
Zr2670     O2674   2.417       .  S
O2671      H2708   0.990       .  S
O2672      H2703   0.990       .  S
O2672      H2717   0.990       .  S
O2674      H2700   0.966       .  S
O2675     Zr2685   2.388   1_455  S
O2676     Zr2685   2.368       .  S
O2676      H2701   0.965       .  S
C2679      C2732   1.475       .  S
O2680      H2716   0.990       .  S
O2681      C2683   1.286       .  A
O2682      C2683   1.280       .  A
O2684     Zr2685   2.435       .  S
O2684      H2713   0.990       .  S
Zr2685     O2688   2.436   1_655  S
Zr2685     O2689   2.445       .  S
Zr2685     O2690   2.446   1_655  S
O2686      C2691   1.285       .  A
O2687      H2704   0.989       .  S
O2687      H2719   0.990       .  S
O2688      H2705   0.990       .  S
O2689      H2709   0.990       .  S
O2689      H2718   0.990       .  S
O2690      C2691   1.286       .  A
O2692      H2711   0.990       .  S
O2692      H2715   0.990       .  S
O2693      H2707   0.990       .  S
O2693      H2714   0.990       .  S
O2694      C2698   1.291       .  A
O2695      C2698   1.271       .  A
O2696      H2706   0.990       .  S
O2697      H2710   0.990       .  S
C2698      C2752   1.453       .  S
C2721      C2722   1.408       .  A
C2721      C2726   1.413       .  A
C2722      C2723   1.393       .  A
C2722     Br2738   1.922   1_455  S
C2723      C2724   1.407       .  A
C2723      H2727   1.068       .  S
C2724      C2728   1.499       .  S
C2724      C2725   1.401       .  A
C2725      C2726   1.401       .  A
C2725     Br2737   1.914       .  S
C2726      H2729   1.083       .  S
C2728      C2730   1.405       .  A
C2728      C2734   1.402       .  A
C2730      C2731   1.395       .  A
C2730      H2735   1.081       .  S
C2731      C2732   1.416       .  A
C2731     Br2739   1.921       .  S
C2732      C2733   1.407       .  A
C2733      C2734   1.407       .  A
C2733      H2736   1.083       .  S
C2734     Br2740   1.900       .  S
C2741      C2742   1.420       .  A
C2741      C2746   1.402       .  A
C2742      C2743   1.400       .  A
C2742     Br2758   1.912       .  S
C2743      C2744   1.399       .  A
C2743      H2747   1.083       .  S
C2744      C2748   1.494       .  S
C2744      C2745   1.420       .  A
C2745      C2746   1.393       .  A
C2745     Br2757   1.921   1_655  S
C2746      H2749   1.083   1_655  S
C2748      C2750   1.400       .  A
C2748      C2754   1.417       .  A
C2750      C2751   1.401       .  A
C2750      H2755   1.076       .  S
C2751      C2752   1.405       .  A
C2751     Br2759   1.915       .  S
C2752      C2753   1.398       .  A
C2753      C2754   1.392       .  A
C2753      H2756   1.084       .  S
C2754     Br2760   1.919       .  S
C2761      C2762   1.412       .  A
C2761      C2766   1.418       .  A
C2762      C2763   1.402       .  A
C2762     Br2778   1.917       .  S
C2763      C2764   1.407       .  A
C2763      H2767   1.080       .  S
C2764      C2768   1.532       .  S
C2764      C2765   1.409       .  A
C2765      C2766   1.405       .  A
C2765     Br2777   1.915       .  S
C2766      H2769   1.083       .  S
C2768      C2770   1.421       .  A
C2768      C2774   1.427       .  A
C2770      C2771   1.402       .  A
C2770      H2775   1.078       .  S
C2771      C2772   1.409       .  A
C2771     Br2779   1.924   1_545  S
C2772      C2773   1.399       .  A
C2773      C2774   1.399       .  A
C2773      H2776   1.074       .  S
C2774     Br2780   1.928       .  S
C2781      C2782   1.405       .  A
C2781      C2786   1.406       .  A
C2782      C2783   1.415       .  A
C2782     Br2798   1.891       .  S
C2783      C2784   1.415       .  A
C2783      H2787   1.082       .  S
C2784      C2788   1.513       .  S
C2784      C2785   1.409       .  A
C2785      C2786   1.398       .  A
C2785     Br2797   1.912       .  S
C2786      H2789   1.076       .  S
C2788      C2790   1.412       .  A
C2788      C2794   1.412       .  A
C2790      C2791   1.386       .  A
C2790      H2795   1.080       .  S
C2791      C2792   1.409       .  A
C2791     Br2799   1.914       .  S
C2792      C2793   1.411       .  A
C2793      C2794   1.400       .  A
C2793      H2796   1.083       .  S
C2794     Br2800   1.915       .  S
