geometry optimzed in LAMMPS
_audit_creation_date              2020-11-30 
_audit_creation_method            'lammps2cif' 
_symmetry_space_group_name_H-M    'P1' 
_symmetry_Int_Tables_number       1 
_symmetry_cell_setting            triclinic 
loop_ 
_symmetry_equiv_pos_as_xyz 
  x,y,z 
_cell_length_a                    37.67024031 
_cell_length_b                    39.504893113860085 
_cell_length_c                    24.868397018674784 
_cell_angle_alpha                 86.89743966533699 
_cell_angle_beta                  89.54203207144637 
_cell_angle_gamma                 87.29778249510463 
loop_ 
_atom_site_label 
_atom_site_type_symbol 
_atom_site_fract_x 
_atom_site_fract_y 
_atom_site_fract_z 
_atom_site_charge 
O1          O  0.76477644  0.09652421  0.09765357    -0.81600
O2          O  0.75195516  0.06783513  0.86853290    -0.66300
O3          O  0.76377341  0.05441474  0.01830184    -1.12900
C4          C  0.87740140  0.09843898  0.97613279     1.05300
O5          O  0.80194318  0.03768034  0.86638335    -0.79500
O6          O  0.85467478  0.02381752  0.93556520    -0.67100
Ni7        Ni  0.72961217  0.07079722  0.06736133     1.34900
C8          C  0.84971816  0.01212652  0.98324635     0.84000
O9          O  0.70883463  0.04493518  0.94740137    -0.80000
O10         O  0.69298095  0.04673278  0.03529257    -0.90300
C11         C  0.77712013  0.05448814  0.84177714     0.83600
O12         O  0.71400502  0.11130181  0.02995919    -0.68500
O13         O  0.87265348  0.08986575  0.92782737    -0.87800
C14         C  0.71902429  0.12420156  0.98318244     0.84400
C15         C  0.68698631  0.04048624  0.98641691     1.06000
H16         H  0.79999093  0.10456514  0.93691885     0.37800
O17         O  0.80222538  0.08032150  0.94453793    -1.10500
O18         O  0.83122363  0.02803528  0.01726889    -0.67100
Ni19       Ni  0.81008707  0.07308014  0.01860821     1.26300
O20         O  0.73523420  0.10836319  0.94636254    -0.67400
O21         O  0.85593135  0.09204019  0.01508735    -0.79600
C22         C  0.79034046  0.08063760  0.12136354     0.83800
O23         O  0.81465048  0.06681395  0.09396330    -0.66800
Ni24       Ni  0.83713063  0.06371042  0.89647576     1.27400
Ni25       Ni  0.75557344  0.06225892  0.94411808     1.26100
H26         H  0.76621151  0.03013364  0.02552580     0.38300
O27         O  0.77266276  0.11298411  0.59899048    -0.81600
O28         O  0.75689144  0.07447094  0.37301315    -0.66300
O29         O  0.76973694  0.06933093  0.52264199    -1.12900
C30         C  0.88489847  0.11062192  0.47150395     1.05300
O31         O  0.80771645  0.04539527  0.37163452    -0.79500
O32         O  0.86109656  0.03595059  0.43944369    -0.67100
Ni33       Ni  0.73569221  0.08871888  0.56956900     1.34900
C34         C  0.85489996  0.02444926  0.48686481     0.84000
O35         O  0.71428541  0.05485541  0.45418439    -0.80000
O36         O  0.69686281  0.06573601  0.53888622    -0.90300
C37         C  0.78116366  0.05925361  0.34709026     0.83600
O38         O  0.72335218  0.12870800  0.52807790    -0.68500
O39         O  0.87819533  0.10211930  0.42379835    -0.87800
C40         C  0.72547900  0.13743556  0.47861382     0.84400
C41         C  0.69122848  0.05478187  0.49229163     1.06000
H42         H  0.80490684  0.11587027  0.43562941     0.37800
O43         O  0.80765970  0.09185510  0.44513893    -1.10500
O44         O  0.83645404  0.04112010  0.52019477    -0.67100
Ni45       Ni  0.81699589  0.08715408  0.51917510     1.26300
O46         O  0.73951979  0.11848438  0.44384152    -0.67400
O47         O  0.86405857  0.10487189  0.51184028    -0.79600
C48         C  0.79792644  0.09631341  0.62254643     0.83800
O49         O  0.82263443  0.08324405  0.59477659    -0.66800
Ni50       Ni  0.84230969  0.07406240  0.39735604     1.27400
Ni51       Ni  0.76107555  0.07295672  0.44818330     1.26100
H52         H  0.77176965  0.04542164  0.53320940     0.38300
O53         O  0.53347867  0.31728792  0.88894523    -0.81600
O54         O  0.56341494  0.32550532  0.11775915    -0.66300
O55         O  0.57877949  0.31110790  0.97088405    -1.12900
C56         C  0.53681846  0.20233917  0.01860890     1.05300
O57         O  0.59651699  0.27900921  0.12914471    -0.79500
O58         O  0.61803224  0.23614162  0.05584946    -0.67100
Ni59       Ni  0.56625006  0.34624088  0.91855607     1.34900
C60         C  0.62248144  0.23299046  0.00581335     0.84000
O61         O  0.59115665  0.36422302  0.03791122    -0.80000
O62         O  0.59818613  0.37660556  0.94924318    -0.90300
C63         C  0.57655591  0.30191705  0.14874807     0.83600
O64         O  0.52711494  0.36829417  0.95297653    -0.68500
O65         O  0.55379299  0.20584546  0.06220355    -0.87800
C66         C  0.51105875  0.36162894  0.99684431     0.84400
C67         C  0.60265332  0.38296225  0.99862658     1.06000
H68         H  0.52697484  0.27765636  0.05803071     0.37800
O69         O  0.55172012  0.27582629  0.04757388    -1.10500
O70         O  0.59931970  0.24354725  0.97150364    -0.67100
Ni71       Ni  0.55440634  0.26873260  0.97358972     1.26300
O72         O  0.52376817  0.34045727  0.03293235    -0.67400
O73         O  0.53165986  0.22600975  0.98173021    -0.79600
C74         C  0.54539284  0.29050311  0.86834757     0.83800
O75         O  0.55584353  0.26525452  0.89830602    -0.66800
Ni76       Ni  0.57497689  0.24314733  0.09537921     1.27400
Ni77       Ni  0.57109083  0.32022653  0.04354251     1.26100
H78         H  0.60395338  0.30609812  0.96640019     0.38300
O79         O  0.51993533  0.31221670  0.38983023    -0.81600
O80         O  0.56034018  0.31819896  0.61436432    -0.66300
O81         O  0.56902557  0.30609352  0.46637965    -1.12900
C82         C  0.53265208  0.19645073  0.51585791     1.05300
O83         O  0.59504918  0.27243933  0.62488152    -0.79500
O84         O  0.61438027  0.23412129  0.54557786    -0.67100
Ni85       Ni  0.55324012  0.34168535  0.41681385     1.34900
C86         C  0.61716743  0.23206552  0.49513370     0.84000
O87         O  0.58292627  0.35822387  0.53367414    -0.80000
O88         O  0.58601387  0.37228900  0.44504573    -0.90300
C89         C  0.57633042  0.29608705  0.64485349     0.83600
O90         O  0.51537156  0.36164920  0.45684577    -0.68500
O91         O  0.55229960  0.19976217  0.55674969    -0.87800
C92         C  0.50139958  0.35312083  0.50169152     0.84400
C93         C  0.59264066  0.37764807  0.49420683     1.06000
H94         H  0.52260325  0.27021340  0.55869278     0.37800
O95         O  0.54673537  0.26926844  0.54534643    -1.10500
O96         O  0.59158699  0.23975510  0.46330669    -0.67100
Ni97       Ni  0.54589040  0.26322219  0.47078452     1.26300
O98         O  0.51650605  0.33215047  0.53562214    -0.67400
O99         O  0.52464464  0.22022947  0.48048839    -0.79600
C100        C  0.53194302  0.28628624  0.36694144     0.83800
O101        O  0.54347814  0.26061666  0.39519534    -0.66800
Ni102      Ni  0.57319313  0.23707377  0.58985335     1.27400
Ni103      Ni  0.56464209  0.31382353  0.53999782     1.26100
H104        H  0.59402499  0.30189468  0.45893256     0.38300
O105        O  0.49997300  0.98274561  0.12213419    -0.81600
O106        O  0.50206722  0.98990394  0.84790497    -0.66300
O107        O  0.52282789  0.98701714  0.00637057    -1.12900
C108        C  0.51906598  0.10490003  0.98610320     1.05300
O109        O  0.52549816  0.03823847  0.82034399    -0.79500
O110        O  0.57171064  0.04142171  0.91019691    -0.67100
Ni111      Ni  0.49717680  0.95720193  0.05520657     1.34900
C112        C  0.58341569  0.03713608  0.95829970     0.84000
O113        O  0.52156744  0.94062731  0.92479382    -0.80000
O114        O  0.49343541  0.92429147  0.00093145    -0.90300
C115        C  0.51202944  0.01038275  0.80834930     0.83600
O116        O  0.45343083  0.97995184  0.03215043    -0.68500
O117        O  0.53260430  0.09830708  0.94039793    -0.87800
C118        C  0.44172455  0.98366422  0.98393025     0.84400
C119        C  0.50893185  0.91801803  0.95658142     1.06000
H120        H  0.47743109  0.04158031  0.93267446     0.37800
O121        O  0.50243229  0.03557337  0.93700183    -1.10500
O122        O  0.56429809  0.03989179  0.00084419    -0.67100
Ni123      Ni  0.51416407  0.03444582  0.01505955     1.26300
O124        O  0.46132975  0.98168090  0.94172326    -0.67400
O125        O  0.50617849  0.08254935  0.01858978    -0.79600
C126        C  0.51407552  0.00998365  0.13530087     0.83800
O127        O  0.52390491  0.03139698  0.09646279    -0.66800
Ni128      Ni  0.52833441  0.06465775  0.88693206     1.27400
Ni129      Ni  0.51164272  0.98810962  0.92855738     1.26100
H130        H  0.54779303  0.98082064  0.01082134     0.38300
O131        O  0.49773152  0.98139626  0.62357596    -0.81600
O132        O  0.50375406  0.98414453  0.34775672    -0.66300
O133        O  0.52349889  0.98137390  0.50775282    -1.12900
C134        C  0.51789302  0.09948257  0.48420152     1.05300
O135        O  0.53148639  0.03087415  0.32214228    -0.79500
O136        O  0.57650513  0.03980941  0.41326433    -0.67100
Ni137      Ni  0.49652720  0.95355930  0.55846223     1.34900
C138        C  0.58720458  0.03718168  0.46216294     0.84000
O139        O  0.51909094  0.93273033  0.42753672    -0.80000
O140        O  0.49387493  0.91859884  0.50744787    -0.90300
C141        C  0.51553541  0.00458901  0.30894706     0.83600
O142        O  0.45262154  0.97481378  0.53221778    -0.68500
O143        O  0.53172657  0.09347611  0.43858974    -0.87800
C144        C  0.44134113  0.97752806  0.48365993     0.84400
C145        C  0.50669204  0.91099851  0.46185649     1.06000
H146        H  0.48044889  0.03573534  0.43172279     0.37800
O147        O  0.50530477  0.02926965  0.43661284    -1.10500
O148        O  0.56622593  0.03570747  0.50311775    -0.67100
Ni149      Ni  0.51552354  0.02916205  0.51461991     1.26300
O150        O  0.46156540  0.97676986  0.44188460    -0.67400
O151        O  0.50631720  0.07681556  0.51701641    -0.79600
C152        C  0.51260412  0.00857823  0.63531711     0.83800
O153        O  0.52409668  0.02808132  0.59557389    -0.66800
Ni154      Ni  0.53132785  0.05857887  0.38704621     1.27400
Ni155      Ni  0.51240690  0.98144568  0.42942086     1.26100
H156        H  0.54836270  0.97506795  0.51270139     0.38300
O157        O  0.49181653  0.71121164  0.85283444    -0.81600
O158        O  0.45411594  0.70152627  0.08164227    -0.66300
O159        O  0.44463117  0.71329369  0.93169390    -1.12900
C160        C  0.49272757  0.82098828  0.95867681     1.05300
O161        O  0.42829555  0.75181098  0.08528932    -0.79500
O162        O  0.41554423  0.79971085  0.01035892    -0.67100
Ni163      Ni  0.46283500  0.67861845  0.88778316     1.34900
C164        C  0.40273196  0.79648175  0.96420931     0.84000
O165        O  0.42654753  0.66350273  0.00808185    -0.80000
O166        O  0.43326917  0.64572510  0.92366229    -0.90300
C167        C  0.44334458  0.72599594  0.10874403     0.83600
O168        O  0.50377945  0.66122205  0.92719281    -0.68500
O169        O  0.48449803  0.81607314  0.00827643    -0.87800
C170        C  0.51420441  0.66537668  0.97455831     0.84400
C171        C  0.42096998  0.64258136  0.97180749     1.06000
H172        H  0.49742305  0.74496112  0.00664784     0.37800
O173        O  0.47224310  0.74894204  0.00049535    -1.10500
O174        O  0.41890963  0.77977097  0.92808635    -0.67100
Ni175      Ni  0.46606179  0.75686556  0.92556420     1.26300
O176        O  0.49594907  0.68286306  0.00703322    -0.67400
O177        O  0.48741951  0.80022890  0.92229826    -0.79600
C178        C  0.47542907  0.73495666  0.82579903     0.83800
O179        O  0.46188971  0.75990305  0.84986314    -0.66800
Ni180      Ni  0.45700797  0.78312101  0.04691978     1.27400
Ni181      Ni  0.44961546  0.70592789  0.00634663     1.26100
H182        H  0.41955549  0.71654475  0.92399533     0.38300
O183        O  0.49054033  0.70112801  0.35389262    -0.81600
O184        O  0.44964413  0.68923416  0.58568427    -0.66300
O185        O  0.44311754  0.70292922  0.43484465    -1.12900
C186        C  0.48682996  0.81221134  0.46834364     1.05300
O187        O  0.42050239  0.73801322  0.58556931    -0.79500
O188        O  0.40840247  0.78650042  0.51265268    -0.67100
Ni189      Ni  0.46060361  0.66894954  0.38907395     1.34900
C190        C  0.39826226  0.78346500  0.46500613     0.84000
O191        O  0.42502265  0.65099620  0.50912269    -0.80000
O192        O  0.43050543  0.63557767  0.42340242    -0.90300
C193        C  0.43603598  0.71335936  0.61131585     0.83600
O194        O  0.50103692  0.65123482  0.42913164    -0.68500
O195        O  0.47611667  0.80676653  0.51689837    -0.87800
C196        C  0.51192652  0.65556461  0.47625158     0.84400
C197        C  0.41904015  0.63088381  0.47177615     1.06000
H198        H  0.49298101  0.73502120  0.51523882     0.37800
O199        O  0.46801853  0.73819733  0.50674815    -1.10500
O200        O  0.41703117  0.76837544  0.43011161    -0.67100
Ni201      Ni  0.46436972  0.74671241  0.43183391     1.26300
O202        O  0.49382493  0.67266315  0.50959038    -0.67400
O203        O  0.48476495  0.79084652  0.43170060    -0.79600
C204        C  0.47655271  0.72753762  0.32994090     0.83800
O205        O  0.46252772  0.75098532  0.35664679    -0.66800
Ni206      Ni  0.44906258  0.77153519  0.55212695     1.27400
Ni207      Ni  0.44677650  0.69430284  0.50968397     1.26100
H208        H  0.41811432  0.70637824  0.42682189     0.38300
O209        O  0.24799532  0.92669660  0.09880554    -0.81600
O210        O  0.27027628  0.96546470  0.86618042    -0.66300
O211        O  0.25707885  0.97138989  0.01607050    -1.12900
C212        C  0.14051615  0.93460266  0.97786889     1.05300
O213        O  0.21919950  0.99366730  0.85812539    -0.79500
O214        O  0.16616746  0.00886201  0.92636662    -0.67100
Ni215      Ni  0.28791288  0.94638827  0.06504871     1.34900
C216        C  0.17259139  0.02111192  0.97124067     0.84000
O217        O  0.31337222  0.98323258  0.94599515    -0.80000
O218        O  0.32888309  0.96538531  0.03120748    -0.90300
C219        C  0.24460580  0.97683371  0.83702566     0.83600
O220        O  0.29611360  0.90559914  0.02861294    -0.68500
O221        O  0.14644581  0.94231329  0.92799020    -0.87800
C222        C  0.29709549  0.89976153  0.97908132     0.84400
C223        C  0.33580022  0.97883325  0.98463898     1.06000
H224        H  0.21958801  0.92660385  0.93961868     0.37800
O225        O  0.21778395  0.95084372  0.94345965    -1.10500
O226        O  0.19146762  0.00472893  0.00715907    -0.67100
Ni227      Ni  0.20866229  0.95767909  0.01677611     1.26300
O228        O  0.28586837  0.92148506  0.94290261    -0.67400
O229        O  0.16112324  0.94219542  0.01554507    -0.79600
C230        C  0.22600490  0.94670720  0.12088004     0.83800
O231        O  0.20352246  0.96353921  0.09164870    -0.66800
Ni232      Ni  0.18309725  0.96842785  0.89293120     1.27400
Ni233      Ni  0.26565195  0.96761219  0.94184296     1.26100
H234        H  0.25750424  0.99503873  0.02395911     0.38300
O235        O  0.25278564  0.90943298  0.60685704    -0.81600
O236        O  0.26774782  0.95546693  0.36987842    -0.66300
O237        O  0.25794956  0.95440721  0.52138120    -1.12900
C238        C  0.14143190  0.91725623  0.48298554     1.05300
O239        O  0.21595938  0.98308425  0.36634271    -0.79500
O240        O  0.16465317  0.99171732  0.43817919    -0.67100
Ni241      Ni  0.29078832  0.92926236  0.56714973     1.34900
C242        C  0.17329518  0.00318236  0.48258429     0.84000
O243        O  0.31190543  0.97159137  0.44911104    -0.80000
O244        O  0.33073499  0.94829106  0.52954835    -0.90300
C245        C  0.24265244  0.97007032  0.34261159     0.83600
O246        O  0.29480169  0.88943478  0.52757667    -0.68500
O247        O  0.14738340  0.92528303  0.43327589    -0.87800
C248        C  0.29586578  0.88550069  0.47736647     0.84400
C249        C  0.33587945  0.96501324  0.48496274     1.06000
H250        H  0.22076835  0.91151004  0.44147780     0.37800
O251        O  0.21822403  0.93543704  0.44771216    -1.10500
O252        O  0.19295224  0.98613755  0.51647155    -0.67100
Ni253      Ni  0.21009723  0.93930404  0.52198750     1.26300
O254        O  0.28653478  0.90891503  0.44267708    -0.67400
O255        O  0.16255888  0.92366337  0.52069786    -0.79600
C256        C  0.22881129  0.92838655  0.62712331     0.83800
O257        O  0.20540255  0.94303022  0.59696004    -0.66800
Ni258      Ni  0.18237609  0.95391946  0.39983878     1.27400
Ni259      Ni  0.26493601  0.95408667  0.44606878     1.26100
H260        H  0.25776599  0.97769940  0.53145990     0.38300
O261        O  0.99757500  0.81249819  0.16459365    -0.81600
O262        O  0.96119479  0.82598972  0.93540296    -0.66300
O263        O  0.95037543  0.81418569  0.08563431    -1.12900
C264        C  0.98615777  0.69970034  0.05671680     1.05300
O265        O  0.92787181  0.78272414  0.93551495    -0.79500
O266        O  0.91003981  0.73973396  0.01054243    -0.67100
Ni267      Ni  0.96658826  0.84671438  0.13133203     1.34900
C268        C  0.90154572  0.74229061  0.05928388     0.84000
O269        O  0.93600436  0.86720137  0.01043599    -0.80000
O270        O  0.93530931  0.88122174  0.09726345    -0.90300
C271        C  0.94573734  0.80433620  0.90984992     0.83600
O272        O  0.00553752  0.86360374  0.09030330    -0.68500
O273        O  0.97428915  0.70597249  0.00901139    -0.87800
C274        C  0.01818927  0.85774788  0.04418647     0.84400
C275        C  0.92698977  0.88707955  0.04765026     1.06000
H276        H  0.99975105  0.77473118  0.00582547     0.37800
O277        O  0.97478856  0.77532073  0.01516614    -1.10500
O278        O  0.92264942  0.75205927  0.09429145    -0.67100
Ni279      Ni  0.97057273  0.76827907  0.09051894     1.26300
O280        O  0.00356107  0.83830263  0.01271398    -0.67400
O281        O  0.98889694  0.72198361  0.09166466    -0.79600
C282        C  0.98282553  0.78866490  0.19097773     0.83800
O283        O  0.96906341  0.76546972  0.16620426    -0.66800
Ni284      Ni  0.95228776  0.74515809  0.97132691     1.27400
Ni285      Ni  0.95610964  0.82172640  0.01111759     1.26100
H286        H  0.92512025  0.81346169  0.09235194     0.38300
O287        O  0.98454438  0.81170251  0.66107585    -0.81600
O288        O  0.95077524  0.83028111  0.43320129    -0.66300
O289        O  0.93665883  0.81733482  0.58267321    -1.12900
C290        C  0.97350739  0.70267309  0.55360683     1.05300
O291        O  0.91893116  0.78609889  0.42888056    -0.79500
O292        O  0.89871003  0.74120014  0.50154480    -0.67100
Ni293      Ni  0.95556054  0.84801601  0.62938710     1.34900
C294        C  0.88788802  0.74379164  0.54936392     0.84000
O295        O  0.92625264  0.87186927  0.50900157    -0.80000
O296        O  0.92692532  0.88484842  0.59639822    -0.90300
C297        C  0.93791772  0.80797272  0.40574009     0.83600
O298        O  0.99620952  0.86293895  0.59039770    -0.68500
O299        O  0.96388429  0.70895003  0.50465509    -0.87800
C300        C  0.00891441  0.85621121  0.54474929     0.84400
C301        C  0.91912249  0.89196731  0.54690254     1.06000
H302        H  0.98696862  0.77753653  0.50593321     0.37800
O303        O  0.96165887  0.77839447  0.51270957    -1.10500
O304        O  0.90672475  0.75515278  0.58615297    -0.67100
Ni305      Ni  0.95500127  0.77093262  0.58741089     1.26300
O306        O  0.99243200  0.83911940  0.51207348    -0.67400
O307        O  0.97300061  0.72467050  0.58931729    -0.79600
C308        C  0.96872009  0.78868092  0.68754568     0.83800
O309        O  0.95137943  0.76772989  0.66292864    -0.66800
Ni310      Ni  0.94216677  0.74821517  0.46595473     1.27400
Ni311      Ni  0.94410139  0.82535768  0.50863126     1.26100
H312        H  0.91129976  0.81770565  0.58897125     0.38300
O313        O  0.69919477  0.59289334  0.16917969    -0.81600
O314        O  0.71280862  0.56494329  0.93856434    -0.66300
O315        O  0.72279010  0.55841987  0.08727517    -1.12900
C316        C  0.79021623  0.65733643  0.05251367     1.05300
O317        O  0.77073107  0.57031669  0.93287540    -0.79500
O318        O  0.81702606  0.58882823  0.00455515    -0.67100
Ni319      Ni  0.68275009  0.55536006  0.13327270     1.34900
C320        C  0.81933336  0.57071547  0.04795042     0.84000
O321        O  0.69058629  0.52031777  0.01394601    -0.80000
O322        O  0.66610272  0.51698813  0.09710924    -0.90300
C323        C  0.74133544  0.56437500  0.91169023     0.83600
O324        O  0.64921314  0.58558194  0.09550557    -0.68500
O325        O  0.78685724  0.65248783  0.00236008    -0.87800
C326        C  0.64659811  0.59524164  0.04620997     0.84400
C327        C  0.67143248  0.50567563  0.05015230     1.06000
H328        H  0.72335534  0.62192369  0.01145022     0.37800
O329        O  0.74027495  0.60285841  0.01610723    -1.10500
O330        O  0.79389854  0.56879012  0.08188842    -0.67100
Ni331      Ni  0.75101324  0.59774439  0.08942711     1.26300
O332        O  0.67046186  0.58760266  0.01187204    -0.67400
O333        O  0.77915250  0.63707845  0.09000172    -0.79600
C334        C  0.72944481  0.58942080  0.19128579     0.83800
O335        O  0.75734010  0.59159408  0.16331311    -0.66800
Ni336      Ni  0.77786793  0.61145691  0.96761443     1.27400
Ni337      Ni  0.71543041  0.56165186  0.01324248     1.26100
H338        H  0.73783679  0.53833186  0.09540364     0.38300
O339        O  0.69681223  0.58223181  0.66887492    -0.81600
O340        O  0.71012311  0.55106044  0.43637772    -0.66300
O341        O  0.71985916  0.54848706  0.58548784    -1.12900
C342        C  0.78250946  0.65012798  0.54328967     1.05300
O343        O  0.76749846  0.55749809  0.43540120    -0.79500
O344        O  0.81314270  0.58261444  0.50175027    -0.67100
Ni345      Ni  0.67957814  0.54582319  0.63109803     1.34900
C346        C  0.81591170  0.56448644  0.54498767     0.84000
O347        O  0.68965151  0.50781945  0.51378351    -0.80000
O348        O  0.66109349  0.50864296  0.59362285    -0.90300
C349        C  0.73910249  0.55258738  0.41089145     0.83600
O350        O  0.64842029  0.57806492  0.59338573    -0.68500
O351        O  0.77869706  0.64395000  0.49363738    -0.87800
C352        C  0.64451746  0.58506185  0.54345696     0.84400
C353        C  0.66789817  0.49557144  0.54833428     1.06000
H354        H  0.71773215  0.61074920  0.50683219     0.37800
O355        O  0.73536919  0.59234364  0.51220132    -1.10500
O356        O  0.79015245  0.56088756  0.57775921    -0.67100
Ni357      Ni  0.74679761  0.58886479  0.58513767     1.26300
O358        O  0.66660434  0.57420250  0.50864639    -0.67400
O359        O  0.77352902  0.62969544  0.58234665    -0.79600
C360        C  0.72775695  0.57973037  0.68871424     0.83800
O361        O  0.75464745  0.58351317  0.65896147    -0.66800
Ni362      Ni  0.77258829  0.60095819  0.46329814     1.27400
Ni363      Ni  0.71255874  0.54981016  0.51127993     1.26100
H364        H  0.73535503  0.52891008  0.59493478     0.38300
O365        O  0.06061465  0.26807291  0.89828209    -0.81600
O366        O  0.09487943  0.25005526  0.13343943    -0.66300
O367        O  0.09946691  0.24089458  0.98396043    -1.12900
C368        C  0.00263933  0.17008128  0.02306165     1.05300
O369        O  0.09912981  0.19409626  0.13758342    -0.79500
O370        O  0.08432707  0.14908163  0.06671217    -0.67100
Ni371      Ni  0.10331439  0.27818312  0.93434375     1.34900
C372        C  0.09687030  0.14850048  0.01937410     0.84000
O373        O  0.13704739  0.27628817  0.05719626    -0.80000
O374        O  0.14599642  0.29009648  0.96908627    -0.90300
C375        C  0.10155842  0.22206608  0.15965527     0.83600
O376        O  0.07691609  0.31274811  0.97034742    -0.68500
O377        O  0.01385799  0.16793021  0.07165480    -0.87800
C378        C  0.06236598  0.31404015  0.01627813     0.84400
C379        C  0.15437532  0.29068246  0.01882501     1.06000
H380        H  0.03583318  0.23386027  0.06309294     0.37800
O381        O  0.05716980  0.22018384  0.05622268    -1.10500
O382        O  0.09035093  0.17261604  0.98408884    -0.67100
Ni383      Ni  0.05906654  0.21352411  0.98223701     1.26300
O384        O  0.06531946  0.28954516  0.05220582    -0.67400
O385        O  0.01824969  0.18620382  0.98433963    -0.79600
C386        C  0.05471174  0.23964560  0.87936267     0.83800
O387        O  0.06031868  0.21204860  0.90690248    -0.66800
Ni388      Ni  0.05644883  0.18175205  0.10441176     1.27400
Ni389      Ni  0.09686236  0.24839619  0.05787446     1.26100
H390        H  0.12051165  0.22649827  0.97866345     0.38300
O391        O  0.03444405  0.20387270  0.63672431    -0.81600
O392        O  0.08867064  0.20243443  0.40896525    -0.66300
O393        O  0.08637291  0.20922155  0.55930984    -1.12900
C394        C  0.03771707  0.31970070  0.50889927     1.05300
O395        O  0.11857674  0.24907532  0.40802375    -0.79500
O396        O  0.12231284  0.29486954  0.48248447    -0.67100
Ni397      Ni  0.06936983  0.17380669  0.60581435     1.34900
C398        C  0.12667093  0.29249820  0.53298167     0.84000
O399        O  0.10734678  0.15814008  0.48949044    -0.80000
O400        O  0.10289093  0.14113578  0.57687925    -0.90300
C401        C  0.10767815  0.22398223  0.38429119     0.83600
O402        O  0.03261994  0.15904645  0.56218575    -0.68500
O403        O  0.05396334  0.31642722  0.46403102    -0.87800
C404        C  0.02127271  0.16725184  0.51524071     0.84400
C405        C  0.11313261  0.13635635  0.52866936     1.06000
H406        H  0.04067341  0.24734892  0.46832954     0.37800
O407        O  0.06473980  0.24836129  0.48109276    -1.10500
O408        O  0.10628202  0.27593298  0.56480042    -0.67100
Ni409      Ni  0.06198895  0.25324286  0.55557027     1.26300
O410        O  0.03875210  0.18557974  0.48146948    -0.67400
O411        O  0.03773754  0.29705125  0.54766390    -0.79600
C412        C  0.04172439  0.23127259  0.65747743     0.83800
O413        O  0.05735820  0.25432079  0.63066479    -0.66800
Ni414      Ni  0.08583407  0.28199199  0.43648017     1.27400
Ni415      Ni  0.08618209  0.20346988  0.48444868     1.26100
H416        H  0.11072426  0.21199246  0.56947007     0.38300
O417        O  0.26685142  0.44120992  0.91466618    -0.81600
O418        O  0.25050591  0.46386777  0.14436769    -0.66300
O419        O  0.25898128  0.48033649  0.99494287    -1.12900
C420        C  0.37846046  0.43743739  0.03303460     1.05300
O421        O  0.29646600  0.49550712  0.14737714    -0.79500
O422        O  0.34869774  0.51047493  0.07745259    -0.67100
Ni423      Ni  0.22682254  0.46161149  0.94784462     1.34900
C424        C  0.34253360  0.52362433  0.03073046     0.84000
O425        O  0.20288939  0.48511457  0.06976463    -0.80000
O426        O  0.18536536  0.47983627  0.98408829    -0.90300
C427        C  0.27320995  0.47811692  0.17136948     0.83600
O428        O  0.22180716  0.41893093  0.98306126    -0.68500
O429        O  0.37179295  0.44449444  0.08184509    -0.87800
C430        C  0.22868307  0.40659668  0.02978751     0.84400
C431        C  0.17906247  0.48590212  0.03331864     1.06000
H432        H  0.30278190  0.43034388  0.07134009     0.37800
O433        O  0.30163306  0.45475698  0.06566952    -1.10500
O434        O  0.32417677  0.50946975  0.99647937    -0.67100
Ni435      Ni  0.30861409  0.46398805  0.99171168     1.26300
O436        O  0.23991463  0.42396741  0.06699308    -0.67400
O437        O  0.35748336  0.44593216  0.99344186    -0.79600
C438        C  0.28732893  0.46071529  0.88971925     0.83800
O439        O  0.31181909  0.47303410  0.91570071    -0.66800
Ni440      Ni  0.33409802  0.47018687  0.11486096     1.27400
Ni441      Ni  0.25256436  0.47077678  0.06928429     1.26100
H442        H  0.25752409  0.50469270  0.98823234     0.38300
O443        O  0.26159036  0.42614208  0.41572175    -0.81600
O444        O  0.24057915  0.46858103  0.64531313    -0.66300
O445        O  0.25211917  0.46958434  0.49472090    -1.12900
C446        C  0.36784622  0.42367073  0.54581061     1.05300
O447        O  0.28993693  0.49582152  0.64126594    -0.79500
O448        O  0.34643135  0.49744677  0.57609688    -0.67100
Ni449      Ni  0.22150307  0.44649268  0.45103555     1.34900
C450        C  0.33895720  0.51133078  0.53033192     0.84000
O451        O  0.19654806  0.48663321  0.56364104    -0.80000
O452        O  0.17937653  0.46483182  0.48639798    -0.90300
C453        C  0.26374103  0.48510184  0.66809969     0.83600
O454        O  0.22001965  0.40549641  0.49343729    -0.68500
O455        O  0.35968412  0.43022041  0.59439954    -0.87800
C456        C  0.21671544  0.39993584  0.54363746     0.84400
C457        C  0.17288409  0.48001545  0.52984701     1.06000
H458        H  0.28973145  0.42267157  0.58035109     0.37800
O459        O  0.29118797  0.44672220  0.57183029    -1.10500
O460        O  0.31703152  0.49870118  0.49916479    -0.67100
Ni461      Ni  0.30087410  0.45261872  0.49821534     1.26300
O462        O  0.22352366  0.42210263  0.57726523    -0.67400
O463        O  0.34889505  0.43409940  0.50506862    -0.79600
C464        C  0.28556031  0.44373651  0.39420583     0.83800
O465        O  0.30700842  0.45798638  0.42325284    -0.66800
Ni466      Ni  0.32462578  0.46274900  0.61903779     1.27400
Ni467      Ni  0.24383824  0.46714756  0.56966835     1.26100
H468        H  0.25121670  0.49319115  0.48219466     0.38300
O469        O  0.97654703  0.52691877  0.90886564    -0.81600
O470        O  0.98496897  0.52683856  0.18093568    -0.66300
O471        O  0.00473880  0.52763796  0.02171739    -1.12900
C472        C  0.02233162  0.40987730  0.04653285     1.05300
O473        O  0.01489241  0.47967008  0.20906082    -0.79500
O474        O  0.06297889  0.47794063  0.11801443    -0.67100
Ni475      Ni  0.97818455  0.55703240  0.97041952     1.34900
C476        C  0.07429266  0.48174615  0.06938301     0.84000
O477        O  0.99861929  0.57595621  0.10162208    -0.80000
O478        O  0.97945456  0.59348206  0.01866293    -0.90300
C479        C  0.99720769  0.50685843  0.22075653     0.83600
O480        O  0.93310021  0.54379165  0.99921082    -0.68500
O481        O  0.03335293  0.41853457  0.09189872    -0.87800
C482        C  0.92233324  0.53958900  0.04793171     0.84400
C483        C  0.99055730  0.59905717  0.06548032     1.06000
H484        H  0.96792390  0.47271103  0.09833861     0.37800
O485        O  0.99206110  0.47962385  0.09308911    -1.10500
O486        O  0.05528858  0.47799155  0.02766460    -0.67100
Ni487      Ni  0.00424393  0.47975071  0.01474484     1.26300
O488        O  0.94297379  0.53460719  0.08869347    -0.67400
O489        O  0.00555045  0.43059026  0.01315467    -0.79600
C490        C  0.99727748  0.50228424  0.89458945     0.83800
O491        O  0.01316216  0.48301958  0.93281621    -0.66800
Ni492      Ni  0.02284397  0.45290344  0.14332483     1.27400
Ni493      Ni  0.99412852  0.52789834  0.09975952     1.26100
H494        H  0.02888360  0.53454530  0.01739349     0.38300
O495        O  0.97712892  0.53424002  0.40666820    -0.81600
O496        O  0.98368182  0.52940913  0.68264358    -0.66300
O497        O  0.00189684  0.53208130  0.52198079    -1.12900
C498        C  0.00853284  0.41506043  0.54287433     1.05300
O499        O  0.01210779  0.48052957  0.70729794    -0.79500
O500        O  0.05779264  0.47829298  0.61488493    -0.67100
Ni501      Ni  0.97315032  0.56112106  0.47293718     1.34900
C502        C  0.06824989  0.48159445  0.56589177     0.84000
O503        O  0.99746258  0.57967086  0.60197869    -0.80000
O504        O  0.96767709  0.59501714  0.52582415    -0.90300
C505        C  0.99584932  0.50794349  0.72104980     0.83600
O506        O  0.93111157  0.54018079  0.49970641    -0.68500
O507        O  0.02376507  0.42174343  0.58635414    -0.87800
C508        C  0.91996789  0.53911798  0.54853587     0.84400
C509        C  0.98394381  0.60202467  0.56823783     1.06000
H510        H  0.96234905  0.47838456  0.59925767     0.37800
O511        O  0.98673965  0.48424853  0.59313339    -1.10500
O512        O  0.04816128  0.47860700  0.52527253    -0.67100
Ni513      Ni  0.99715956  0.48478019  0.51469130     1.26300
O514        O  0.94036688  0.53934814  0.58973300    -0.67400
O515        O  0.99223732  0.43723774  0.51227286    -0.79600
C516        C  0.99412526  0.50681842  0.39419903     0.83800
O517        O  0.00619702  0.48636501  0.43353394    -0.66800
Ni518      Ni  0.01684274  0.45491308  0.64045407     1.27400
Ni519      Ni  0.99162355  0.53173323  0.60054053     1.26100
H520        H  0.02628616  0.53797374  0.51617054     0.38300
C521        C  0.99068102  0.51493132  0.78416999    -0.17200
C522        C  0.00246309  0.49534171  0.83146306    -0.32300
H523        H  0.97570950  0.53835833  0.79166452     0.11900
H524        H  0.01788532  0.47217056  0.82394748     0.12400
C525        C  0.00038615  0.49784256  0.33205260    -0.17200
C526        C  0.99051750  0.51601650  0.28273130    -0.32300
H527        H  0.01488273  0.47379974  0.32723902     0.11900
H528        H  0.97596908  0.54005569  0.28737919     0.12400
C529        C  0.10514664  0.48699286  0.55514520    -0.14000
C530        C  0.13629220  0.48719809  0.54345797    -0.15600
C531        C  0.14235974  0.49096567  0.04924003    -0.14000
C532        C  0.11114154  0.48901720  0.06037821    -0.15600
C533        C  0.29238878  0.50197369  0.75093186    -0.14100
C534        C  0.26430938  0.48651449  0.72626501     0.08100
C535        C  0.24136256  0.46656379  0.75716604    -0.14100
C536        C  0.24874759  0.45894466  0.81084991    -0.14100
C537        C  0.27893648  0.47149894  0.83435766     0.08100
C538        C  0.29976715  0.49437207  0.80499377    -0.14100
H539        H  0.31014244  0.51793596  0.72767572     0.12100
H540        H  0.21934862  0.45471160  0.73910415     0.12100
H541        H  0.23150263  0.44205759  0.83330142     0.12100
H542        H  0.32245966  0.50511766  0.82304064     0.12100
C543        C  0.26199656  0.43321106  0.30529651    -0.14100
C544        C  0.28585332  0.44991293  0.33634035     0.08100
C545        C  0.30589953  0.47585412  0.31286824    -0.14100
C546        C  0.30117048  0.48576877  0.25901029    -0.14100
C547        C  0.27640151  0.46976540  0.22852136     0.08100
C548        C  0.25713869  0.44321911  0.25173628    -0.14100
H549        H  0.24626663  0.41309702  0.32274502     0.12100
H550        H  0.32422078  0.48922835  0.33644864     0.12100
H551        H  0.31667685  0.50598632  0.24136658     0.12100
H552        H  0.23846970  0.43001292  0.22852069     0.12100
C553        C  0.02058408  0.35202605  0.51741619    -0.14000
C554        C  0.01222346  0.38085901  0.52686546    -0.15600
C555        C  0.14759217  0.33866605  0.58882379    -0.14100
C556        C  0.15560786  0.31234403  0.55400886     0.08100
C557        C  0.18865402  0.31166557  0.52754518    -0.14100
C558        C  0.21144797  0.33841815  0.53106478    -0.14100
C559        C  0.20159412  0.36685697  0.56049338     0.08100
C560        C  0.17040756  0.36580147  0.59197017    -0.14100
H561        H  0.12194372  0.34024687  0.60876999     0.12100
H562        H  0.19536450  0.29198088  0.50001308     0.12100
H563        H  0.23510024  0.33859828  0.50598916     0.12100
H564        H  0.16165042  0.38762052  0.61399931     0.12100
C565        C  0.04304415  0.34591001  0.02738140    -0.14000
C566        C  0.03121787  0.37482903  0.03341511    -0.15600
C567        C  0.18145354  0.33035227  0.07948126    -0.14100
C568        C  0.18365704  0.31195478  0.03250278     0.08100
C569        C  0.20919065  0.32005247  0.99325541    -0.14100
C570        C  0.22825778  0.34910494  0.99687510    -0.14100
C571        C  0.22171879  0.37058529  0.03940890     0.08100
C572        C  0.20038822  0.35980886  0.08282381    -0.14100
H573        H  0.16202114  0.32443036  0.11050468     0.12100
H574        H  0.21183921  0.30590811  0.95719703     0.12100
H575        H  0.24511588  0.35683869  0.96332811     0.12100
H576        H  0.19503367  0.37606741  0.11593059     0.12100
C577        C  0.03274860  0.20847139  0.80353394    -0.14100
C578        C  0.04186993  0.23910124  0.82446935     0.08100
C579        C  0.04267395  0.26869355  0.79079586    -0.14100
C580        C  0.03891856  0.26680739  0.73577140    -0.14100
C581        C  0.03417129  0.23536310  0.71417060     0.08100
C582        C  0.02870988  0.20664191  0.74838189    -0.14100
H583        H  0.03118483  0.18551622  0.82916127     0.12100
H584        H  0.04894921  0.29279341  0.80629268     0.12100
H585        H  0.04249171  0.28939179  0.70996651     0.12100
H586        H  0.02455706  0.18217483  0.73239710     0.12100
C587        C  0.10802432  0.19086276  0.24754224    -0.14100
C588        C  0.11125370  0.22116883  0.21607356     0.08100
C589        C  0.12017729  0.25081025  0.24004429    -0.14100
C590        C  0.12239157  0.25089707  0.29569107    -0.14100
C591        C  0.11506335  0.22148954  0.32731140     0.08100
C592        C  0.10965269  0.19109233  0.30305400    -0.14100
H593        H  0.10164507  0.16750989  0.22966336     0.12100
H594        H  0.12343436  0.27422509  0.21614794     0.12100
H595        H  0.12694964  0.27458744  0.31393239     0.12100
H596        H  0.10453583  0.16807487  0.32698235     0.12100
C597        C  0.88197325  0.54094876  0.55687755    -0.14000
C598        C  0.85045937  0.54856947  0.55651741    -0.15600
C599        C  0.85321352  0.55275737  0.05814491    -0.14000
C600        C  0.88436052  0.54335677  0.05723104    -0.15600
C601        C  0.77002370  0.56536800  0.82287612    -0.14100
C602        C  0.73991628  0.55954846  0.85478633     0.08100
C603        C  0.70692433  0.55534793  0.83112313    -0.14100
C604        C  0.70314064  0.56116116  0.77629041    -0.14100
C605        C  0.73242538  0.57075465  0.74511016     0.08100
C606        C  0.76624690  0.57107112  0.76795024    -0.14100
H607        H  0.79585909  0.56808899  0.84055136     0.12100
H608        H  0.68353580  0.55006789  0.85521469     0.12100
H609        H  0.67709264  0.55947733  0.75874718     0.12100
H610        H  0.78937625  0.57735169  0.74392056     0.12100
C611        C  0.70358389  0.56318767  0.27304850    -0.14100
C612        C  0.73244366  0.57803124  0.24688914     0.08100
C613        C  0.76520220  0.57915956  0.27263360    -0.14100
C614        C  0.76847821  0.56739600  0.32558961    -0.14100
C615        C  0.73883019  0.55491157  0.35303421     0.08100
C616        C  0.70684529  0.55140941  0.32609292    -0.14100
H617        H  0.67849021  0.56105422  0.25280613     0.12100
H618        H  0.78797386  0.58985685  0.25229489     0.12100
H619        H  0.79345335  0.57017296  0.34583804     0.12100
H620        H  0.68382971  0.54146579  0.34679491     0.12100
C621        C  0.98326514  0.66804577  0.56994868    -0.14000
C622        C  0.98595204  0.63754059  0.57660071    -0.15600
C623        C  0.84884934  0.70559445  0.60363603    -0.14100
C624        C  0.85273447  0.72996068  0.56105051     0.08100
C625        C  0.82722687  0.73263415  0.51984564    -0.14100
C626        C  0.80172839  0.70832445  0.51684073    -0.14100
C627        C  0.80087953  0.68115514  0.55548196     0.08100
C628        C  0.82293272  0.68133928  0.60094773    -0.14100
H629        H  0.86835956  0.70274932  0.63551684     0.12100
H630        H  0.82956622  0.75130475  0.48659539     0.12100
H631        H  0.78468832  0.70919252  0.48186017     0.12100
H632        H  0.82275837  0.66073908  0.63149519     0.12100
C633        C  0.99433214  0.63407408  0.07606146    -0.14000
C634        C  0.99415453  0.66466187  0.07223859    -0.15600
C635        C  0.83862163  0.73772697  0.03638394    -0.14100
C636        C  0.86603331  0.73084990  0.07398371     0.08100
C637        C  0.86254978  0.70459961  0.11364794    -0.14100
C638        C  0.83473951  0.68244892  0.11053377    -0.14100
C639        C  0.81056930  0.68635216  0.06747478     0.08100
C640        C  0.81129543  0.71541674  0.03273980    -0.14100
H641        H  0.84077810  0.75797234  0.00550847     0.12100
H642        H  0.88355095  0.69862810  0.14262147     0.12100
H643        H  0.83463175  0.66019110  0.13795416     0.12100
H644        H  0.79265924  0.71922270  0.99977350     0.12100
C645        C  0.97686431  0.82011994  0.82520509    -0.14100
C646        C  0.95153831  0.80098901  0.85279673     0.08100
C647        C  0.93408926  0.77586893  0.82688936    -0.14100
C648        C  0.94142490  0.77030527  0.77352783    -0.14100
C649        C  0.96597880  0.79007250  0.74542947     0.08100
C650        C  0.98414342  0.81461261  0.77163548    -0.14100
H651        H  0.99108096  0.83911149  0.84498276     0.12100
H652        H  0.91474695  0.76045771  0.84781224     0.12100
H653        H  0.92696833  0.75142179  0.75387834     0.12100
H654        H  0.00321600  0.83017356  0.75039625     0.12100
C655        C  0.98564470  0.82010412  0.27407580    -0.14100
C656        C  0.97513543  0.79165995  0.24788049     0.08100
C657        C  0.95250023  0.76882312  0.27390108    -0.14100
C658        C  0.93944868  0.77496843  0.32469331    -0.14100
C659        C  0.94927754  0.80375536  0.35051198     0.08100
C660        C  0.97275951  0.82612574  0.32529511    -0.14100
H661        H  0.00293343  0.83817530  0.25444104     0.12100
H662        H  0.94384496  0.74681232  0.25435189     0.12100
H663        H  0.92182598  0.75699810  0.34381605     0.12100
H664        H  0.98112202  0.84816218  0.34506550     0.12100
C665        C  0.15975879  0.04895419  0.54751912    -0.14100
C666        C  0.15975822  0.03786312  0.49473241     0.08100
C667        C  0.14610434  0.06016694  0.45313661    -0.14100
C668        C  0.13227228  0.09251851  0.46405213    -0.14100
C669        C  0.13124682  0.10331941  0.51699782     0.08100
C670        C  0.14536578  0.08124194  0.55860658    -0.14100
H671        H  0.17010393  0.03238943  0.58043080     0.12100
H672        H  0.14593792  0.05256495  0.41194471     0.12100
H673        H  0.12141364  0.10872044  0.43107602     0.12100
H674        H  0.14494529  0.08878340  0.59983371     0.12100
C675        C  0.09679102  0.89873583  0.55243667    -0.14100
C676        C  0.10827173  0.90008705  0.49843503     0.08100
C677        C  0.08754665  0.88533501  0.45996011    -0.14100
C678        C  0.05581876  0.87008274  0.47510252    -0.14100
C679        C  0.04392515  0.86963331  0.52892832     0.08100
C680        C  0.06501388  0.88388831  0.56740729    -0.14100
H681        H  0.11202700  0.90981047  0.58320210     0.12100
H682        H  0.09574148  0.88573488  0.41810597     0.12100
H683        H  0.04017162  0.85940374  0.44442348     0.12100
H684        H  0.05678003  0.88392702  0.60923206     0.12100
C685        C  0.15381695  0.06608451  0.03552707    -0.14100
C686        C  0.15633492  0.05542299  0.98253281     0.08100
C687        C  0.14102478  0.07700262  0.94099522    -0.14100
C688        C  0.12303682  0.10789683  0.95233945    -0.14100
C689        C  0.11933657  0.11781191  0.00564209     0.08100
C690        C  0.13538393  0.09661302  0.04692375    -0.14100
H691        H  0.16507130  0.05024620  0.06861175     0.12100
H692        H  0.14242382  0.06973539  0.89964315     0.12100
H693        H  0.11091582  0.12341032  0.91959373     0.12100
H694        H  0.13324214  0.10339968  0.08847944     0.12100
C695        C  0.26253287  0.92945474  0.71205331    -0.14100
C696        C  0.23122415  0.93751886  0.68299983     0.08100
C697        C  0.20451138  0.95868535  0.70474728    -0.14100
C698        C  0.20940542  0.97236238  0.75424626    -0.14100
C699        C  0.24103651  0.96498275  0.78277802     0.08100
C700        C  0.26744797  0.94317094  0.76159899    -0.14100
H701        H  0.28370268  0.91347761  0.69576263     0.12100
H702        H  0.18021012  0.96540165  0.68288135     0.12100
H703        H  0.18834189  0.98858463  0.77023668     0.12100
H704        H  0.29184270  0.93663397  0.78332476     0.12100
C705        C  0.25745442  0.93571825  0.20723321    -0.14100
C706        C  0.23054378  0.95364861  0.17731756     0.08100
C707        C  0.21027340  0.97974968  0.20052865    -0.14100
C708        C  0.21584511  0.98677894  0.25390086    -0.14100
C709        C  0.24180414  0.96784139  0.28436406     0.08100
C710        C  0.26318267  0.94289665  0.26030897    -0.14100
H711        H  0.27390576  0.91585722  0.18983775     0.12100
H712        H  0.18995482  0.99442710  0.17771435     0.12100
H713        H  0.19908436  0.00620099  0.27185085     0.12100
H714        H  0.28316763  0.92779570  0.28317298     0.12100
C715        C  0.08866594  0.89943210  0.95545780    -0.14100
C716        C  0.10877116  0.91515580  0.99370463     0.08100
C717        C  0.09943708  0.91063760  0.04842426    -0.14100
C718        C  0.07076347  0.89127875  0.06451477    -0.14100
C719        C  0.05056942  0.87557497  0.02650392     0.08100
C720        C  0.05995898  0.87972598  0.97171101    -0.14100
H721        H  0.09527213  0.90212391  0.91303564     0.12100
H722        H  0.11427410  0.92218422  0.07915163     0.12100
H723        H  0.06427577  0.88879710  0.10701032     0.12100
H724        H  0.04468089  0.86833504  0.94132554     0.12100
C725        C  0.56988713  0.62451593  0.45503799    -0.14100
C726        C  0.54704951  0.63961218  0.49296677     0.08100
C727        C  0.55778006  0.63845481  0.54708438    -0.14100
C728        C  0.58984684  0.62160877  0.56311481    -0.14100
C729        C  0.61221712  0.60569568  0.52541410     0.08100
C730        C  0.60210373  0.60791700  0.47100275    -0.14100
H731        H  0.56266190  0.62511941  0.41292814     0.12100
H732        H  0.54099288  0.64987199  0.57737802     0.12100
H733        H  0.59681186  0.62055986  0.60535582     0.12100
H734        H  0.61859169  0.59596488  0.44088613     0.12100
C735        C  0.33638145  0.79769756  0.49023410    -0.14100
C736        C  0.36353166  0.80014020  0.45140563     0.08100
C737        C  0.36119796  0.82647692  0.41122014    -0.14100
C738        C  0.33522656  0.85290443  0.41517522    -0.14100
C739        C  0.31180657  0.85309087  0.45956703     0.08100
C740        C  0.31080742  0.82405286  0.49447773    -0.14100
H741        H  0.33763775  0.77748130  0.52151033     0.12100
H742        H  0.38203588  0.82898241  0.38119588     0.12100
H743        H  0.33645789  0.87501652  0.38762264     0.12100
H744        H  0.29269760  0.82334466  0.52854621     0.12100
C745        C  0.39160236  0.59050177  0.53989993    -0.14100
C746        C  0.39768533  0.60061045  0.48568344     0.08100
C747        C  0.38296007  0.58162997  0.44559514    -0.14100
C748        C  0.36277242  0.55328871  0.45957777    -0.14100
C749        C  0.35731021  0.54300163  0.51395168     0.08100
C750        C  0.37198467  0.56209073  0.55375647    -0.14100
H751        H  0.40245013  0.60431711  0.57193601     0.12100
H752        H  0.38696758  0.58871900  0.40339207     0.12100
H753        H  0.35220028  0.53896584  0.42792203     0.12100
H754        H  0.36840882  0.55496035  0.59605348     0.12100
C755        C  0.57361576  0.63615820  0.95544476    -0.14100
C756        C  0.54884876  0.64890179  0.99284858     0.08100
C757        C  0.55725963  0.64505531  0.04796042    -0.14100
C758        C  0.58916914  0.62825614  0.06520003    -0.14100
C759        C  0.61381735  0.61522436  0.02779064     0.08100
C760        C  0.60572631  0.61976485  0.97263381    -0.14100
H761        H  0.56813131  0.63874561  0.91270489     0.12100
H762        H  0.53882300  0.65443718  0.07795213     0.12100
H763        H  0.59437894  0.62521501  0.10799191     0.12100
H764        H  0.62387174  0.60992602  0.94264492     0.12100
C765        C  0.36329579  0.83989354  0.91310432    -0.14100
C766        C  0.36774552  0.81444614  0.95454277     0.08100
C767        C  0.34270302  0.81336469  0.99675094    -0.14100
C768        C  0.31680234  0.83951189  0.00149024    -0.14100
C769        C  0.31503341  0.86728624  0.96379033     0.08100
C770        C  0.33692069  0.86612000  0.91758023    -0.14100
H771        H  0.38252287  0.84164096  0.88057659     0.12100
H772        H  0.34555657  0.79406505  0.02929133     0.12100
H773        H  0.30018470  0.83946951  0.03724792     0.12100
H774        H  0.33629355  0.88726218  0.88794580     0.12100
C775        C  0.43918225  0.75053466  0.74545441    -0.14100
C776        C  0.46619536  0.72995300  0.77034105     0.08100
C777        C  0.48129247  0.70206346  0.74426811    -0.14100
C778        C  0.46988665  0.69520170  0.69327961    -0.14100
C779        C  0.44338033  0.71625169  0.66800912     0.08100
C780        C  0.42769864  0.74360600  0.69467951    -0.14100
H781        H  0.42663221  0.77171731  0.76539534     0.12100
H782        H  0.50186525  0.68556607  0.76327037     0.12100
H783        H  0.48259913  0.67422607  0.67302095     0.12100
H784        H  0.40721460  0.76023292  0.67571303     0.12100
C785        C  0.44213200  0.75482190  0.19403436    -0.14100
C786        C  0.45219632  0.72639511  0.16524072     0.08100
C787        C  0.47349443  0.69985625  0.18939477    -0.14100
C788        C  0.48359415  0.70120697  0.24261322    -0.14100
C789        C  0.47232985  0.72904757  0.27199762     0.08100
C790        C  0.45229066  0.75621717  0.24710236    -0.14100
H791        H  0.42628792  0.77590158  0.17571226     0.12100
H792        H  0.48220674  0.67803553  0.16732744     0.12100
H793        H  0.49906231  0.67996954  0.26120288     0.12100
H794        H  0.44329359  0.77797224  0.26911859     0.12100
C795        C  0.36621989  0.56487286  0.96078655    -0.14100
C796        C  0.35909083  0.55599819  0.01514947     0.08100
C797        C  0.37129822  0.57654009  0.05488526    -0.14100
C798        C  0.39080960  0.60491828  0.04071549    -0.14100
C799        C  0.39904430  0.61318623  0.98648106     0.08100
C800        C  0.38616852  0.59304602  0.94661763    -0.14100
H801        H  0.35749490  0.54932940  0.92930117     0.12100
H802        H  0.36627988  0.57032879  0.09713633     0.12100
H803        H  0.40015580  0.61991765  0.07245666     0.12100
H804        H  0.39176306  0.59886104  0.90443541     0.12100
C805        C  0.50578900  0.87547479  0.45058215    -0.14000
C806        C  0.50000305  0.84544475  0.45416139    -0.15600
C807        C  0.40333668  0.97925180  0.47594041    -0.14000
C808        C  0.37159074  0.97568699  0.47544790    -0.15600
C809        C  0.51054975  0.88337014  0.94240668    -0.14000
C810        C  0.50619058  0.85337499  0.94340564    -0.15600
C811        C  0.40397599  0.98827576  0.97685793    -0.14000
C812        C  0.37202466  0.98743787  0.97586784    -0.15600
C813        C  0.50754150  0.00085134  0.74650263    -0.17200
C814        C  0.51684435  0.01840732  0.69706696    -0.32300
H815        H  0.49543266  0.97678500  0.74205910     0.11900
H816        H  0.52912485  0.04239518  0.70144537     0.12400
C817        C  0.51926243  0.01710185  0.19813969    -0.17200
C818        C  0.51066801  0.99732370  0.24610476    -0.32300
H819        H  0.53131727  0.04091967  0.20478016     0.11900
H820        H  0.49840081  0.97361198  0.23946639     0.12400
C821        C  0.41163097  0.39790797  0.48230365    -0.14100
C822        C  0.40108467  0.40356621  0.53551763     0.08100
C823        C  0.42297775  0.39053523  0.57809680    -0.14100
C824        C  0.45522382  0.37303421  0.56746360    -0.14100
C825        C  0.46620705  0.36868344  0.51411784     0.08100
C826        C  0.44385922  0.38081737  0.47176101    -0.14100
H827        H  0.39534564  0.40729354  0.44851344     0.12100
H828        H  0.41548184  0.39428441  0.61954997     0.12100
H829        H  0.47204420  0.36388108  0.60078601     0.12100
H830        H  0.45149942  0.37741507  0.43023602     0.12100
C831        C  0.51700871  0.13390172  0.49942900    -0.14000
C832        C  0.52105246  0.16315077  0.50794221    -0.15600
C833        C  0.63099621  0.42632504  0.46774439    -0.14100
C834        C  0.61216841  0.40779698  0.50735511     0.08100
C835        C  0.61219172  0.41816685  0.56066656    -0.14100
C836        C  0.63033536  0.44651373  0.57401895    -0.14100
C837        C  0.64924585  0.46502903  0.53452957     0.08100
C838        C  0.64951510  0.45453299  0.48125135    -0.14100
H839        H  0.63159125  0.41892926  0.42643512     0.12100
H840        H  0.59784490  0.40453856  0.59223398     0.12100
H841        H  0.62958238  0.45387060  0.61535148     0.12100
H842        H  0.66368907  0.46838121  0.44974145     0.12100
C843        C  0.45761726  0.39612364  0.96219313    -0.14100
C844        C  0.47648550  0.37991459  0.00583436     0.08100
C845        C  0.46271152  0.38260826  0.05800533    -0.14100
C846        C  0.43107862  0.40149117  0.06651077    -0.14100
C847        C  0.41218504  0.41781315  0.02298497     0.08100
C848        C  0.42567784  0.41468255  0.97063585    -0.14100
H849        H  0.46754922  0.39444977  0.92138447     0.12100
H850        H  0.47670622  0.37062306  0.09239347     0.12100
H851        H  0.42133112  0.40312167  0.10741155     0.12100
H852        H  0.41178630  0.42684629  0.93629716     0.12100
C853        C  0.52008474  0.13955222  0.00148075    -0.14000
C854        C  0.52496972  0.16888680  0.00980224    -0.15600
C855        C  0.53782050  0.31796035  0.77770666    -0.14100
C856        C  0.55142713  0.29063429  0.81074542     0.08100
C857        C  0.57438136  0.26576877  0.78944196    -0.14100
C858        C  0.58387953  0.26838678  0.73553197    -0.14100
C859        C  0.57024983  0.29573476  0.70248487     0.08100
C860        C  0.54722248  0.32052807  0.72381901    -0.14100
H861        H  0.52027342  0.33755477  0.79362908     0.12100
H862        H  0.58560162  0.24475799  0.81459606     0.12100
H863        H  0.60137342  0.24875055  0.71961739     0.12100
H864        H  0.53605618  0.34161698  0.69878144     0.12100
C865        C  0.55904623  0.26245572  0.28580812    -0.14100
C866        C  0.53887860  0.28852394  0.30923892     0.08100
C867        C  0.53047143  0.31892054  0.27920998    -0.14100
C868        C  0.54331462  0.32367339  0.22700703    -0.14100
C869        C  0.56468723  0.29809003  0.20445216     0.08100
C870        C  0.57203918  0.26728890  0.23384323    -0.14100
H871        H  0.56599785  0.23884926  0.30828594     0.12100
H872        H  0.51505099  0.33946076  0.29664591     0.12100
H873        H  0.53681026  0.34738683  0.20454397     0.12100
H874        H  0.58781671  0.24686735  0.21672085     0.12100
C875        C  0.63653080  0.43466179  0.97080953    -0.14100
C876        C  0.62133716  0.41384482  0.01158564     0.08100
C877        C  0.62318932  0.42337493  0.06521573    -0.14100
C878        C  0.63940565  0.45307539  0.07767276    -0.14100
C879        C  0.65447598  0.47395610  0.03691949     0.08100
C880        C  0.65302961  0.46427231  0.98334879    -0.14100
H881        H  0.63555903  0.42817822  0.92911378     0.12100
H882        H  0.61171860  0.40807011  0.09774530     0.12100
H883        H  0.64016420  0.45963544  0.11935760     0.12100
H884        H  0.66428651  0.47980691  0.95090476     0.12100
C885        C  0.88429977  0.96916120  0.46371818    -0.14100
C886        C  0.87001042  0.99016276  0.50313667     0.08100
C887        C  0.87096641  0.97818534  0.55740149    -0.14100
C888        C  0.88670605  0.94616862  0.57187503    -0.14100
C889        C  0.90138032  0.92541951  0.53227167     0.08100
C890        C  0.89963692  0.93720783  0.47805363    -0.14100
H891        H  0.88377314  0.97744653  0.42149106     0.12100
H892        H  0.86012639  0.99375297  0.58868530     0.12100
H893        H  0.88747665  0.93772604  0.61402962     0.12100
H894        H  0.91067909  0.92195939  0.44652543     0.12100
C895        C  0.65597973  0.04344627  0.48132925    -0.14000
C896        C  0.62508915  0.03823646  0.47212310    -0.15600
C897        C  0.67889133  0.17084217  0.42705491    -0.14100
C898        C  0.70772588  0.17021602  0.46252319     0.08100
C899        C  0.71060845  0.19688434  0.49706518    -0.14100
C900        C  0.68220293  0.22024821  0.50306135    -0.14100
C901        C  0.65081264  0.21744525  0.47402318     0.08100
C902        C  0.65041459  0.19451060  0.43275239    -0.14100
H903        H  0.67603373  0.15032169  0.40045379     0.12100
H904        H  0.73272539  0.19686579  0.52467454     0.12100
H905        H  0.68333883  0.23814497  0.53444605     0.12100
H906        H  0.62650448  0.19202614  0.40965772     0.12100
C907        C  0.94081792  0.13913128  0.43836249    -0.14100
C908        C  0.91898448  0.12717313  0.48111308     0.08100
C909        C  0.93071201  0.12993951  0.53401334    -0.14100
C910        C  0.96347259  0.14332385  0.54411070    -0.14100
C911        C  0.98575997  0.15473281  0.50176143     0.08100
C912        C  0.97377251  0.15301739  0.44859423    -0.14100
H913        H  0.93258047  0.13749797  0.39700677     0.12100
H914        H  0.91486361  0.12107546  0.56799568     0.12100
H915        H  0.97141622  0.14455060  0.58569125     0.12100
H916        H  0.99015062  0.16162027  0.41505699     0.12100
C917        C  0.88997870  0.93891262  0.07064951    -0.14100
C918        C  0.90589068  0.91847519  0.03177432     0.08100
C919        C  0.90146605  0.92824520  0.97695093    -0.14100
C920        C  0.88245601  0.95820313  0.96131958    -0.14100
C921        C  0.86716622  0.97902781  0.00008418     0.08100
C922        C  0.87064137  0.96884987  0.05493183    -0.14100
H923        H  0.89264278  0.93191087  0.11318133     0.12100
H924        H  0.91322857  0.91303838  0.94590400     0.12100
H925        H  0.88012681  0.96525770  0.91875478     0.12100
H926        H  0.85921970  0.98444974  0.08575216     0.12100
C927        C  0.65204231  0.03110174  0.97400646    -0.14000
C928        C  0.62074260  0.03088997  0.96541038    -0.15600
C929        C  0.70875489  0.18191651  0.01412237    -0.14100
C930        C  0.70403732  0.15905090  0.97368705     0.08100
C931        C  0.67703017  0.16614558  0.93572654    -0.14100
C932        C  0.65232770  0.19331999  0.94250385    -0.14100
C933        C  0.65429688  0.21327066  0.98763524     0.04500
C934        C  0.68400733  0.20867049  0.02126461    -0.14100
H935        H  0.72942933  0.17681864  0.04392687     0.12100
H936        H  0.67259963  0.14858221  0.90475194     0.12100
H937        H  0.62963865  0.19630844  0.91589742     0.12100
H938        H  0.68643595  0.22384384  0.05593588     0.12100
C939        C  0.80992262  0.04950390  0.75599422    -0.14100
C940        C  0.78151234  0.06399614  0.78502770     0.08100
C941        C  0.76015973  0.09061558  0.76143773    -0.14100
C942        C  0.76697399  0.10251241  0.70920759    -0.14100
C943        C  0.79498859  0.08769383  0.67982395     0.08100
C944        C  0.81667622  0.06134779  0.70358302    -0.14100
H945        H  0.82701746  0.02918386  0.77386060     0.12100
H946        H  0.73855848  0.10261140  0.78353953     0.12100
H947        H  0.74980420  0.12280502  0.69143973     0.12100
H948        H  0.83813335  0.04928156  0.68126494     0.12100
C949        C  0.76203335  0.09252029  0.20770337    -0.14100
C950        C  0.78889193  0.07533524  0.17917754     0.08100
C951        C  0.81164442  0.05091397  0.20549259    -0.14100
C952        C  0.80786839  0.04416043  0.26039380    -0.14100
C953        C  0.78137950  0.06186840  0.28898032     0.08100
C954        C  0.75814983  0.08566575  0.26230976    -0.14100
H955        H  0.74395201  0.11126094  0.18785442     0.12100
H956        H  0.83205360  0.03696529  0.18371258     0.12100
H957        H  0.82610422  0.02572941  0.28061566     0.12100
H958        H  0.73779293  0.09984929  0.28383283     0.12100
C959        C  0.92984978  0.13134679  0.94595242    -0.14100
C960        C  0.90933854  0.11695609  0.98789838     0.08100
C961        C  0.91936232  0.12075430  0.04147543    -0.14100
C962        C  0.94946432  0.13823862  0.05286763    -0.14100
C963        C  0.97008857  0.15253682  0.01094781     0.08100
C964        C  0.95983491  0.14908735  0.95736001    -0.14100
H965        H  0.92266458  0.12904501  0.90427655     0.12100
H966        H  0.90412311  0.10995015  0.07473797     0.12100
H967        H  0.95658453  0.14047454  0.09458926     0.12100
H968        H  0.97521264  0.15973405  0.92413197     0.12100
loop_ 
_geom_bond_atom_site_label_1 
_geom_bond_atom_site_label_2 
_geom_bond_distance 
_geom_bond_site_symmetry_2 
_ccdc_geom_bond_type 
O1           Ni7   1.892       .  S
O1           C22   1.257       .  A
O2          Ni25   1.886       .  S
O2           C11   1.265       .  A
O3           Ni7   1.883       .  S
O3          Ni25   1.880   1_554  S
O3          Ni19   1.926       .  S
O3           H26   0.966       .  S
C4           O21   1.279   1_556  A
C4           O13   1.282       .  A
C4          C960   1.476       .  S
O5          Ni24   1.898       .  S
O5           C11   1.263       .  A
O6          Ni24   1.900       .  S
O6            C8   1.265       .  A
Ni7          O10   1.915       .  S
Ni7          O12   1.879       .  S
C8           O18   1.266   1_556  A
C8          C921   1.477   1_546  S
O9          Ni25   1.918       .  S
O9           C15   1.278       .  A
O10          C15   1.277   1_554  A
C11         C940   1.451       .  S
O12          C14   1.261   1_554  A
O13         Ni24   1.924       .  S
C14          O20   1.273       .  A
C14         C930   1.471       .  S
C15         C927   1.425       .  S
H16          O17   0.966       .  S
O17         Ni25   1.928       .  S
O17         Ni19   1.872   1_556  S
O17         Ni24   1.889       .  S
O18         Ni19   1.917       .  S
Ni19         O23   1.885       .  S
Ni19         O21   1.914       .  S
O20         Ni25   1.946       .  S
C22          O23   1.259       .  A
C22         C950   1.443       .  S
O27         Ni33   1.901       .  S
O27          C48   1.261       .  A
O28         Ni51   1.875       .  S
O28          C37   1.262       .  A
O29         Ni33   1.890       .  S
O29         Ni51   1.879       .  S
O29         Ni45   1.945       .  S
O29          H52   0.966       .  S
C30          O47   1.286       .  A
C30          O39   1.281       .  A
C30         C908   1.495       .  S
O31         Ni50   1.903       .  S
O31          C37   1.263       .  A
O32         Ni50   1.898       .  S
O32          C34   1.265       .  A
Ni33         O36   1.940       .  S
Ni33         O38   1.881       .  S
C34          O44   1.269       .  A
C34         C886   1.481   1_545  S
O35         Ni51   1.935       .  S
O35          C41   1.280       .  A
O36          C41   1.281       .  A
C37         C953   1.443       .  S
O38          C40   1.262       .  A
O39         Ni50   1.929       .  S
C40          O46   1.270       .  A
C40         C898   1.467       .  S
C41         C895   1.454       .  S
H42          O43   0.966       .  S
O43         Ni51   1.939       .  S
O43         Ni45   1.875       .  S
O43         Ni50   1.894       .  S
O44         Ni45   1.927       .  S
Ni45         O49   1.891       .  S
Ni45         O47   1.940       .  S
O46         Ni51   1.936       .  S
C48          O49   1.262       .  A
C48         C943   1.451       .  S
O53         Ni59   1.901       .  S
O53          C74   1.262       .  A
O54         Ni77   1.887       .  S
O54          C63   1.262       .  A
O55         Ni59   1.896       .  S
O55         Ni77   1.879   1_556  S
O55         Ni71   1.945       .  S
O55          H78   0.966       .  S
C56          O73   1.283   1_554  A
C56          O65   1.280       .  A
C56         C854   1.443       .  S
O57         Ni76   1.902       .  S
O57          C63   1.265       .  A
O58         Ni76   1.907       .  S
O58          C60   1.266       .  A
Ni59         O62   1.928       .  S
Ni59         O64   1.899       .  S
C60          O70   1.266   1_554  A
C60         C933   1.480   1_554  S
O61         Ni77   1.926       .  S
O61          C67   1.279   1_554  A
O62          C67   1.281       .  A
C63         C869   1.454       .  S
O64          C66   1.264       .  A
O65         Ni76   1.934       .  S
C66          O72   1.274   1_556  A
C66         C844   1.481   1_556  S
C67         C876   1.488   1_556  S
H68          O69   0.966       .  S
O69         Ni77   1.929       .  S
O69         Ni71   1.877   1_554  S
O69         Ni76   1.895       .  S
O70         Ni71   1.924       .  S
Ni71         O75   1.885       .  S
Ni71         O73   1.929       .  S
O72         Ni77   1.933       .  S
C74          O75   1.262       .  A
C74         C856   1.448       .  S
O79         Ni85   1.901       .  S
O79         C100   1.262       .  A
O80        Ni103   1.872       .  S
O80          C89   1.260       .  A
O81         Ni85   1.896       .  S
O81        Ni103   1.877       .  S
O81         Ni97   1.938       .  S
O81         H104   0.967       .  S
C82          O99   1.279       .  A
C82          O91   1.279       .  A
C82         C832   1.430       .  S
O83        Ni102   1.908       .  S
O83          C89   1.265       .  A
O84        Ni102   1.898       .  S
O84          C86   1.265       .  A
Ni85         O88   1.930       .  S
Ni85         O90   1.898       .  S
C86          O96   1.267       .  A
C86         C901   1.473       .  S
O87        Ni103   1.913       .  S
O87          C93   1.275       .  A
O88          C93   1.280       .  A
C89         C859   1.449       .  S
O90          C92   1.265       .  A
O91        Ni102   1.929       .  S
C92          O98   1.269       .  A
C92         C825   1.472       .  S
C93         C834   1.482       .  S
H94          O95   0.965       .  S
O95        Ni103   1.912       .  S
O95         Ni97   1.883       .  S
O95        Ni102   1.893       .  S
O96         Ni97   1.929       .  S
Ni97        O101   1.891       .  S
Ni97         O99   1.914       .  S
O98        Ni103   1.922       .  S
C100        O101   1.264       .  A
C100        C866   1.455       .  S
O105       Ni111   1.999       .  S
O105        C126   1.281   1_565  A
O106       Ni129   2.038       .  S
O106        C115   1.304   1_565  A
O107       Ni111   1.931       .  S
O107       Ni129   1.981   1_554  S
O107       Ni123   1.910   1_565  S
O107        H130   0.966       .  S
C108        O125   1.275   1_556  A
C108        O117   1.277       .  A
C108        C853   1.443   1_556  S
O109       Ni128   2.011       .  S
O109        C115   1.284       .  A
O110       Ni128   1.914       .  S
O110        C112   1.278       .  A
Ni111       O114   1.934       .  S
Ni111       O116   1.916       .  S
C112        O122   1.282   1_556  A
C112        C928   1.427       .  S
O113       Ni129   1.902       .  S
O113        C119   1.268       .  A
O114        C119   1.274   1_554  A
C115        C813   1.615       .  S
O116        C118   1.280   1_554  A
O117       Ni128   1.943       .  S
C118        O124   1.282       .  A
C118        C811   1.436       .  S
C119        C809   1.430       .  S
H120        O121   0.966       .  S
O121       Ni129   1.913   1_545  S
O121       Ni123   1.992   1_556  S
O121       Ni128   1.938       .  S
O122       Ni123   1.938       .  S
Ni123       O127   2.056       .  S
Ni123       O125   1.917       .  S
O124       Ni129   1.947       .  S
C126        O127   1.312       .  A
C126        C817   1.618       .  S
O131       Ni137   2.008       .  S
O131        C152   1.283   1_565  A
O132       Ni155   2.056       .  S
O132        C141   1.313   1_565  A
O133       Ni137   1.940       .  S
O133       Ni155   1.995       .  S
O133       Ni149   1.914   1_565  S
O133        H156   0.965       .  S
C134        O151   1.269       .  A
C134        O143   1.274       .  A
C134        C831   1.430       .  S
O135       Ni154   1.998       .  S
O135        C141   1.283       .  A
O136       Ni154   1.928       .  S
O136        C138   1.281       .  A
Ni137       O140   1.932       .  S
Ni137       O142   1.922       .  S
C138        O148   1.285       .  A
C138        C896   1.453       .  S
O139       Ni155   1.932       .  S
O139        C145   1.279       .  A
O140        C145   1.274       .  A
C141        C818   1.618   1_545  S
O142        C144   1.281       .  A
O143       Ni154   1.933       .  S
C144        O150   1.284       .  A
C144        C807   1.444       .  S
C145        C805   1.448       .  S
H146        O147   0.966       .  S
O147       Ni155   1.913   1_545  S
O147       Ni149   1.980       .  S
O147       Ni154   1.938       .  S
O148       Ni149   1.956       .  S
Ni149       O153   2.039       .  S
Ni149       O151   1.902       .  S
O150       Ni155   1.953       .  S
C152        O153   1.304       .  A
C152        C814   1.615       .  S
O157       Ni163   1.898       .  S
O157        C178   1.264       .  A
O158       Ni181   1.879       .  S
O158        C167   1.258       .  A
O159       Ni163   1.898       .  S
O159       Ni181   1.873   1_556  S
O159       Ni175   1.934       .  S
O159        H182   0.967       .  S
C160        O177   1.277       .  A
C160        O169   1.276   1_556  A
C160        C810   1.430       .  S
O161       Ni180   1.895       .  S
O161        C167   1.260       .  A
O162       Ni180   1.886       .  S
O162        C164   1.264   1_554  A
Ni163       O166   1.929       .  S
Ni163       O168   1.914       .  S
C164        O174   1.277       .  A
C164        C766   1.482       .  S
O165       Ni181   1.922       .  S
O165        C171   1.281   1_554  A
O166        C171   1.282       .  A
C167        C786   1.448       .  S
O168        C170   1.266       .  A
O169       Ni180   1.915       .  S
C170        O176   1.268   1_556  A
C170        C756   1.494       .  S
C171        C799   1.484       .  S
H172        O173   0.966       .  S
O173       Ni181   1.935       .  S
O173       Ni175   1.887   1_554  S
O173       Ni180   1.890       .  S
O174       Ni175   1.957       .  S
Ni175       O179   1.887       .  S
Ni175       O177   1.924       .  S
O176       Ni181   1.930       .  S
C178        O179   1.265       .  A
C178        C776   1.451       .  S
O183       Ni189   1.911       .  S
O183        C204   1.268       .  A
O184       Ni207   1.893       .  S
O184        C193   1.262       .  A
O185       Ni189   1.898       .  S
O185       Ni207   1.879       .  S
O185       Ni201   1.937       .  S
O185        H208   0.966       .  S
C186        O203   1.280       .  A
C186        O195   1.280       .  A
C186        C806   1.450       .  S
O187       Ni206   1.898       .  S
O187        C193   1.259       .  A
O188       Ni206   1.880       .  S
O188        C190   1.261       .  A
Ni189       O192   1.938       .  S
Ni189       O194   1.911       .  S
C190        O200   1.271       .  A
C190        C736   1.470       .  S
O191       Ni207   1.932       .  S
O191        C197   1.282       .  A
O192        C197   1.282       .  A
C193        C779   1.451       .  S
O194        C196   1.268       .  A
O195       Ni206   1.932       .  S
C196        O202   1.272       .  A
C196        C726   1.491       .  S
C197        C746   1.496       .  S
H198        O199   0.966       .  S
O199       Ni207   1.941       .  S
O199       Ni201   1.880       .  S
O199       Ni206   1.891       .  S
O200       Ni201   1.941       .  S
Ni201       O205   1.870       .  S
Ni201       O203   1.938       .  S
O202       Ni207   1.931       .  S
C204        O205   1.262       .  A
C204        C789   1.449       .  S
O209       Ni215   1.895       .  S
O209        C230   1.261       .  A
O210       Ni233   1.894       .  S
O210        C219   1.264       .  A
O211       Ni215   1.895       .  S
O211       Ni233   1.884   1_554  S
O211       Ni227   1.927       .  S
O211        H234   0.966       .  S
C212        O229   1.278   1_556  A
C212        O221   1.282       .  A
C212        C716   1.491       .  S
O213       Ni232   1.900       .  S
O213        C219   1.266       .  A
O214       Ni232   1.921   1_545  S
O214        C216   1.270       .  A
Ni215       O218   1.917       .  S
Ni215       O220   1.903       .  S
C216        O226   1.275   1_556  A
C216        C686   1.500       .  S
O217       Ni233   1.933       .  S
O217        C223   1.284       .  A
O218        C223   1.278   1_554  A
C219        C699   1.461       .  S
O220        C222   1.265   1_554  A
O221       Ni232   1.936       .  S
C222        O228   1.270       .  A
C222        C769   1.488       .  S
C223        C812   1.434       .  S
H224        O225   0.967       .  S
O225       Ni233   1.950       .  S
O225       Ni227   1.884   1_556  S
O225       Ni232   1.901       .  S
O226       Ni227   1.942   1_545  S
Ni227       O231   1.896       .  S
Ni227       O229   1.920       .  S
O228       Ni233   1.940       .  S
C230        O231   1.262       .  A
C230        C706   1.457       .  S
O235       Ni241   1.907       .  S
O235        C256   1.265       .  A
O236       Ni259   1.895       .  S
O236        C245   1.266       .  A
O237       Ni241   1.897       .  S
O237       Ni259   1.890       .  S
O237       Ni253   1.925       .  S
O237        H260   0.966       .  S
C238        O255   1.278       .  A
C238        O247   1.280       .  A
C238        C676   1.487       .  S
O239       Ni258   1.907       .  S
O239        C245   1.264       .  A
O240       Ni258   1.906       .  S
O240        C242   1.267   1_565  A
Ni241       O244   1.927       .  S
Ni241       O246   1.900       .  S
C242        O252   1.270   1_545  A
C242        C666   1.485       .  S
O243       Ni259   1.933       .  S
O243        C249   1.282       .  A
O244        C249   1.278       .  A
C245        C709   1.457       .  S
O246        C248   1.267       .  A
O247       Ni258   1.931       .  S
C248        O254   1.269       .  A
C248        C739   1.477       .  S
C249        C808   1.443       .  S
H250        O251   0.966       .  S
O251       Ni259   1.939       .  S
O251       Ni253   1.883       .  S
O251       Ni258   1.901       .  S
O252       Ni253   1.929       .  S
Ni253       O257   1.884       .  S
Ni253       O255   1.923       .  S
O254       Ni259   1.932       .  S
C256        O257   1.261       .  A
C256        C696   1.459       .  S
O261       Ni267   1.902       .  S
O261        C282   1.266       .  A
O262       Ni285   1.890   1_556  S
O262        C271   1.259       .  A
O263       Ni267   1.887       .  S
O263       Ni285   1.873       .  S
O263       Ni279   1.931       .  S
O263        H286   0.966       .  S
C264        O281   1.278       .  A
C264        O273   1.279       .  A
C264        C634   1.435       .  S
O265       Ni284   1.893       .  S
O265        C271   1.256       .  A
O266       Ni284   1.875   1_554  S
O266        C268   1.259       .  A
Ni267       O270   1.925       .  S
Ni267       O272   1.906   1_655  S
C268        O278   1.271       .  A
C268        C636   1.469       .  S
O269       Ni285   1.916       .  S
O269        C275   1.279       .  A
O270        C275   1.282       .  A
C271        C646   1.446       .  S
O272        C274   1.267       .  A
O273       Ni284   1.922   1_554  S
C274        O280   1.272       .  A
C274        C719   1.489       .  S
C275        C918   1.478       .  S
H276        O277   0.966       .  S
O277       Ni285   1.930       .  S
O277       Ni279   1.886       .  S
O277       Ni284   1.891   1_554  S
O278       Ni279   1.944       .  S
Ni279       O283   1.880       .  S
Ni279       O281   1.923       .  S
O280       Ni285   1.934   1_455  S
C282        O283   1.265       .  A
C282        C656   1.452       .  S
O287       Ni293   1.901       .  S
O287        C308   1.263       .  A
O288       Ni311   1.891       .  S
O288        C297   1.260       .  A
O289       Ni293   1.890       .  S
O289       Ni311   1.873       .  S
O289       Ni305   1.926       .  S
O289        H312   0.966       .  S
C290        O307   1.275       .  A
C290        O299   1.281       .  A
C290        C621   1.437       .  S
O291       Ni310   1.896       .  S
O291        C297   1.260       .  A
O292       Ni310   1.880       .  S
O292        C294   1.262       .  A
Ni293       O296   1.921       .  S
Ni293       O298   1.906       .  S
C294        O304   1.275       .  A
C294        C624   1.477       .  S
O295       Ni311   1.927       .  S
O295        C301   1.284       .  A
O296        C301   1.281       .  A
C297        C659   1.451       .  S
O298        C300   1.265   1_655  A
O299       Ni310   1.932       .  S
C300        O306   1.268   1_455  A
C300        C679   1.487       .  S
C301        C889   1.481       .  S
H302        O303   0.966       .  S
O303       Ni311   1.938       .  S
O303       Ni305   1.882       .  S
O303       Ni310   1.886       .  S
O304       Ni305   1.951       .  S
Ni305       O309   1.880       .  S
Ni305       O307   1.917       .  S
O306       Ni311   1.928       .  S
C308        O309   1.264       .  A
C308        C649   1.446       .  S
O313       Ni319   1.902       .  S
O313        C334   1.268       .  A
O314       Ni337   1.858   1_556  S
O314        C323   1.261       .  A
O315       Ni319   1.890       .  S
O315       Ni337   1.861       .  S
O315       Ni331   1.927       .  S
O315        H338   0.966       .  S
C316        O333   1.276       .  A
C316        O325   1.280       .  A
C316        C639   1.474       .  S
O317       Ni336   1.912       .  S
O317        C323   1.267       .  A
O318       Ni336   1.905   1_554  S
O318        C320   1.263       .  A
Ni319       O322   1.936       .  S
Ni319       O324   1.913       .  S
C320        O330   1.274       .  A
C320        C599   1.448       .  S
O321       Ni337   1.919       .  S
O321        C327   1.280       .  A
O322        C327   1.284       .  A
C323        C602   1.440       .  S
O324        C326   1.267       .  A
O325       Ni336   1.923   1_554  S
C326        O332   1.272       .  A
C326        C759   1.495       .  S
C327        C879   1.487       .  S
H328        O329   0.966       .  S
O329       Ni337   1.920       .  S
O329       Ni331   1.869       .  S
O329       Ni336   1.884   1_554  S
O330       Ni331   1.949       .  S
Ni331       O335   1.856       .  S
Ni331       O333   1.923       .  S
O332       Ni337   1.938       .  S
C334        O335   1.259       .  A
C334        C612   1.434       .  S
O339       Ni345   1.902       .  S
O339        C360   1.267       .  A
O340       Ni363   1.864       .  S
O340        C349   1.260       .  A
O341       Ni345   1.891       .  S
O341       Ni363   1.866       .  S
O341       Ni357   1.930       .  S
O341        H364   0.966       .  S
C342        O359   1.283       .  A
C342        O351   1.282       .  A
C342        C627   1.482       .  S
O343       Ni362   1.905       .  S
O343        C349   1.263       .  A
O344       Ni362   1.902       .  S
O344        C346   1.261       .  A
Ni345       O348   1.941       .  S
Ni345       O350   1.904       .  S
C346        O356   1.270       .  A
C346        C598   1.442       .  S
O347       Ni363   1.903       .  S
O347        C353   1.275       .  A
O348        C353   1.283       .  A
C349        C615   1.437       .  S
O350        C352   1.266       .  A
O351       Ni362   1.920       .  S
C352        O358   1.273       .  A
C352        C729   1.491       .  S
C353        C837   1.482       .  S
H354        O355   0.966       .  S
O355       Ni363   1.924       .  S
O355       Ni357   1.864       .  S
O355       Ni362   1.880       .  S
O356       Ni357   1.942       .  S
Ni357       O361   1.861       .  S
Ni357       O359   1.939       .  S
O358       Ni363   1.941       .  S
C360        O361   1.259       .  A
C360        C605   1.438       .  S
O365       Ni371   1.917       .  S
O365        C386   1.271       .  A
O366       Ni389   1.885       .  S
O366        C375   1.269       .  A
O367       Ni371   1.880       .  S
O367       Ni389   1.879   1_556  S
O367       Ni383   1.910       .  S
O367        H390   0.966       .  S
C368        O385   1.280   1_554  A
C368        O377   1.281       .  A
C368        C963   1.478   1_455  S
O369       Ni388   1.908       .  S
O369        C375   1.267       .  A
O370       Ni388   1.907       .  S
O370        C372   1.266       .  A
Ni371       O374   1.921       .  S
Ni371       O376   1.909       .  S
C372        O382   1.276   1_554  A
C372        C689   1.499       .  S
O373       Ni389   1.913       .  S
O373        C379   1.275       .  A
O374        C379   1.281   1_556  A
C375        C588   1.451       .  S
O376        C378   1.265   1_556  A
O377       Ni388   1.920       .  S
C378        O384   1.283       .  A
C378        C565   1.463       .  S
C379        C568   1.471       .  S
H380        O381   0.966       .  S
O381       Ni389   1.909       .  S
O381       Ni383   1.873   1_554  S
O381       Ni388   1.884       .  S
O382       Ni383   1.953       .  S
Ni383       O387   1.878       .  S
Ni383       O385   1.919       .  S
O384       Ni389   1.967       .  S
C386        O387   1.266       .  A
C386        C578   1.454       .  S
O391       Ni397   1.915       .  S
O391        C412   1.266       .  A
O392       Ni415   1.881       .  S
O392        C401   1.268       .  A
O393       Ni397   1.898       .  S
O393       Ni415   1.888       .  S
O393       Ni409   1.926       .  S
O393        H416   0.966       .  S
C394        O411   1.279       .  A
C394        O403   1.278       .  A
C394        C553   1.429       .  S
O395       Ni414   1.910       .  S
O395        C401   1.267       .  A
O396       Ni414   1.900       .  S
O396        C398   1.266       .  A
Ni397       O400   1.926       .  S
Ni397       O402   1.898       .  S
C398        O408   1.275       .  A
C398        C556   1.487       .  S
O399       Ni415   1.924       .  S
O399        C405   1.278       .  A
O400        C405   1.278       .  A
C401        C591   1.450       .  S
O402        C404   1.267       .  A
O403       Ni414   1.922       .  S
C404        O410   1.278       .  A
C404        C911   1.495   1_455  S
C405        C669   1.486       .  S
H406        O407   0.966       .  S
O407       Ni415   1.912       .  S
O407       Ni409   1.874       .  S
O407       Ni414   1.885       .  S
O408       Ni409   1.952       .  S
Ni409       O413   1.877       .  S
Ni409       O411   1.920       .  S
O410       Ni415   1.956       .  S
C412        O413   1.265       .  A
C412        C581   1.452       .  S
O417       Ni423   1.882       .  S
O417        C438   1.253       .  A
O418       Ni441   1.874       .  S
O418        C427   1.263       .  A
O419       Ni423   1.894       .  S
O419       Ni441   1.883   1_556  S
O419       Ni435   1.952       .  S
O419        H442   0.967       .  S
C420        O437   1.288   1_554  A
C420        O429   1.280       .  A
C420        C847   1.483       .  S
O421       Ni440   1.897       .  S
O421        C427   1.265       .  A
O422       Ni440   1.901       .  S
O422        C424   1.265       .  A
Ni423       O426   1.926       .  S
Ni423       O428   1.874       .  S
C424        O434   1.270   1_554  A
C424        C796   1.481       .  S
O425       Ni441   1.930       .  S
O425        C431   1.279       .  A
O426        C431   1.278   1_556  A
C427        C547   1.446       .  S
O428        C430   1.260   1_556  A
O429       Ni440   1.912       .  S
C430        O436   1.268       .  A
C430        C571   1.465       .  S
C431        C531   1.443       .  S
H432        O433   0.966       .  S
O433       Ni441   1.928       .  S
O433       Ni435   1.874   1_554  S
O433       Ni440   1.881       .  S
O434       Ni435   1.926       .  S
Ni435       O439   1.909       .  S
Ni435       O437   1.943       .  S
O436       Ni441   1.935       .  S
C438        O439   1.261       .  A
C438        C537   1.452       .  S
O443       Ni449   1.908       .  S
O443        C464   1.263       .  A
O444       Ni467   1.888       .  S
O444        C453   1.269       .  A
O445       Ni449   1.889       .  S
O445       Ni467   1.885       .  S
O445       Ni461   1.926       .  S
O445        H468   0.966       .  S
C446        O463   1.282       .  A
C446        O455   1.281       .  A
C446        C822   1.479       .  S
O447       Ni466   1.904       .  S
O447        C453   1.264       .  A
O448       Ni466   1.905       .  S
O448        C450   1.264       .  A
Ni449       O452   1.938       .  S
Ni449       O454   1.887       .  S
C450        O460   1.274       .  A
C450        C749   1.494       .  S
O451       Ni467   1.911       .  S
O451        C457   1.276       .  A
O452        C457   1.280       .  A
C453        C534   1.451       .  S
O454        C456   1.262       .  A
O455       Ni466   1.919       .  S
C456        O462   1.279       .  A
C456        C559   1.488       .  S
C457        C530   1.436       .  S
H458        O459   0.966       .  S
O459       Ni467   1.923       .  S
O459       Ni461   1.868       .  S
O459       Ni466   1.883       .  S
O460       Ni461   1.948       .  S
Ni461       O465   1.878       .  S
Ni461       O463   1.924       .  S
O462       Ni467   1.969       .  S
C464        O465   1.260       .  A
C464        C544   1.447       .  S
O469       Ni475   1.992       .  S
O469        C490   1.282       .  A
O470       Ni493   2.044       .  S
O470        C479   1.306       .  A
O471       Ni475   1.931   1_454  S
O471       Ni493   1.979   1_455  S
O471       Ni487   1.910       .  S
O471        H494   0.965       .  S
C472        O489   1.282       .  A
C472        O481   1.275       .  A
C472        C566   1.463       .  S
O473       Ni492   2.007       .  S
O473        C479   1.283   1_455  A
O474       Ni492   1.928       .  S
O474        C476   1.283       .  A
Ni475       O478   1.926   1_556  S
Ni475       O480   1.922       .  S
C476        O486   1.284       .  A
C476        C532   1.444       .  S
O477       Ni493   1.917       .  S
O477        C483   1.274       .  A
O478        C483   1.274       .  A
C479        C526   1.617       .  S
O480        C482   1.279   1_556  A
O481       Ni492   1.940       .  S
C482        O488   1.284       .  A
C482        C600   1.449       .  S
C483        C633   1.436       .  S
H484        O485   0.967       .  S
O485       Ni493   1.928       .  S
O485       Ni487   1.998   1_655  S
O485       Ni492   1.945   1_655  S
O486       Ni487   1.949       .  S
Ni487       O491   2.060   1_554  S
Ni487       O489   1.943       .  S
O488       Ni493   1.952       .  S
C490        O491   1.315   1_655  A
C490        C522   1.617   1_655  S
O495       Ni501   2.009       .  S
O495        C516   1.284       .  A
O496       Ni519   2.059       .  S
O496        C505   1.313       .  A
O497       Ni501   1.931   1_455  S
O497       Ni519   1.988   1_455  S
O497       Ni513   1.904   1_455  S
O497        H520   0.966       .  S
C498        O515   1.268   1_455  A
C498        O507   1.274       .  A
C498        C554   1.429       .  S
O499       Ni518   1.995       .  S
O499        C505   1.280   1_455  A
O500       Ni518   1.921       .  S
O500        C502   1.279       .  A
Ni501       O504   1.930       .  S
Ni501       O506   1.919       .  S
C502        O512   1.281       .  A
C502        C529   1.437       .  S
O503       Ni519   1.919       .  S
O503        C509   1.276       .  A
O504        C509   1.274       .  A
C505        C521   1.617       .  S
O506        C508   1.281       .  A
O507       Ni518   1.936       .  S
C508        O514   1.286       .  A
C508        C597   1.444       .  S
C509        C622   1.435       .  S
H510        O511   0.967       .  S
O511       Ni519   1.912       .  S
O511       Ni513   1.986       .  S
O511       Ni518   1.940   1_655  S
O512       Ni513   1.943   1_455  S
Ni513       O517   2.042   1_655  S
Ni513       O515   1.900       .  S
O514       Ni519   1.958       .  S
C516        O517   1.305   1_655  A
C516        C525   1.617   1_655  S
C521        C522   1.434   1_655  D
C521        H523   1.085       .  S
C522        H524   1.085       .  S
C525        C526   1.430   1_455  D
C525        H527   1.085       .  S
C526        H528   1.085       .  S
C529        C530   1.207       .  T
C531        C532   1.211       .  T
C533        C534   1.407       .  A
C533        C538   1.389       .  A
C533        H539   1.083       .  S
C534        C535   1.395       .  A
C535        C536   1.380       .  A
C535        H540   1.084       .  S
C536        C537   1.406       .  A
C536        H541   1.083       .  S
C537        C538   1.397       .  A
C538        H542   1.083       .  S
C543        C544   1.400       .  A
C543        C548   1.380       .  A
C543        H549   1.083       .  S
C544        C545   1.401       .  A
C545        C546   1.385       .  A
C545        H550   1.083       .  S
C546        C547   1.401       .  A
C546        H551   1.083       .  S
C547        C548   1.400       .  A
C548        H552   1.083       .  S
C553        C554   1.202       .  T
C555        C556   1.409       .  A
C555        C560   1.411       .  A
C555        H561   1.083       .  S
C556        C557   1.403       .  A
C557        C558   1.400       .  A
C557        H562   1.083       .  S
C558        C559   1.407       .  A
C558        H563   1.084       .  S
C559        C560   1.407       .  A
C560        H564   1.083       .  S
C565        C566   1.223       .  T
C567        C568   1.409       .  A
C567        C572   1.400       .  A
C567        H573   1.083       .  S
C568        C569   1.400   1_554  A
C569        C570   1.390       .  A
C569        H574   1.083       .  S
C570        C571   1.405   1_556  A
C570        H575   1.084       .  S
C571        C572   1.400       .  A
C572        H576   1.083       .  S
C577        C578   1.401       .  A
C577        C582   1.387       .  A
C577        H583   1.083       .  S
C578        C579   1.402       .  A
C579        C580   1.383       .  A
C579        H584   1.083       .  S
C580        C581   1.399       .  A
C580        H585   1.083       .  S
C581        C582   1.403       .  A
C582        H586   1.083       .  S
C587        C588   1.404       .  A
C587        C592   1.383       .  A
C587        H593   1.083       .  S
C588        C589   1.398       .  A
C589        C590   1.387       .  A
C589        H594   1.083       .  S
C590        C591   1.404       .  A
C590        H595   1.083       .  S
C591        C592   1.397       .  A
C592        H596   1.084       .  S
C597        C598   1.211       .  T
C599        C600   1.214       .  T
C601        C602   1.400       .  A
C601        C606   1.380       .  A
C601        H607   1.083       .  S
C602        C603   1.400       .  A
C603        C604   1.378       .  A
C603        H608   1.084       .  S
C604        C605   1.398       .  A
C604        H609   1.083       .  S
C605        C606   1.400       .  A
C606        H610   1.083       .  S
C611        C612   1.399       .  A
C611        C616   1.379       .  A
C611        H617   1.083       .  S
C612        C613   1.398       .  A
C613        C614   1.377       .  A
C613        H618   1.084       .  S
C614        C615   1.400       .  A
C614        H619   1.084       .  S
C615        C616   1.399       .  A
C616        H620   1.084       .  S
C621        C622   1.207       .  T
C623        C624   1.404       .  A
C623        C628   1.404       .  A
C623        H629   1.083       .  S
C624        C625   1.407       .  A
C625        C626   1.395       .  A
C625        H630   1.084       .  S
C626        C627   1.403       .  A
C626        H631   1.083       .  S
C627        C628   1.409       .  A
C628        H632   1.083       .  S
C633        C634   1.207       .  T
C635        C636   1.406       .  A
C635        C640   1.393       .  A
C635        H641   1.084       .  S
C636        C637   1.402       .  A
C637        C638   1.402       .  A
C637        H642   1.083       .  S
C638        C639   1.409       .  A
C638        H643   1.083       .  S
C639        C640   1.400       .  A
C640        H644   1.083   1_554  S
C645        C646   1.398       .  A
C645        C650   1.385       .  A
C645        H651   1.083       .  S
C646        C647   1.403       .  A
C647        C648   1.380       .  A
C647        H652   1.083       .  S
C648        C649   1.397       .  A
C648        H653   1.083       .  S
C649        C650   1.404       .  A
C650        H654   1.083   1_655  S
C655        C656   1.403       .  A
C655        C660   1.388       .  A
C655        H661   1.083   1_655  S
C656        C657   1.400       .  A
C657        C658   1.381       .  A
C657        H662   1.083       .  S
C658        C659   1.402       .  A
C658        H663   1.083       .  S
C659        C660   1.401       .  A
C660        H664   1.083       .  S
C665        C666   1.406       .  A
C665        C670   1.403       .  A
C665        H671   1.083       .  S
C666        C667   1.406       .  A
C667        C668   1.397       .  A
C667        H672   1.083       .  S
C668        C669   1.406       .  A
C668        H673   1.083       .  S
C669        C670   1.408       .  A
C670        H674   1.083       .  S
C675        C676   1.407       .  A
C675        C680   1.397       .  A
C675        H681   1.083       .  S
C676        C677   1.407       .  A
C677        C678   1.403       .  A
C677        H682   1.083       .  S
C678        C679   1.408       .  A
C678        H683   1.083       .  S
C679        C680   1.406       .  A
C680        H684   1.083       .  S
C685        C686   1.406   1_554  A
C685        C690   1.404       .  A
C685        H691   1.083       .  S
C686        C687   1.412       .  A
C687        C688   1.409       .  A
C687        H692   1.083       .  S
C688        C689   1.406   1_556  A
C688        H693   1.083       .  S
C689        C690   1.411       .  A
C690        H694   1.083       .  S
C695        C696   1.403       .  A
C695        C700   1.390       .  A
C695        H701   1.083       .  S
C696        C697   1.402       .  A
C697        C698   1.388       .  A
C697        H702   1.083       .  S
C698        C699   1.402       .  A
C698        H703   1.083       .  S
C699        C700   1.403       .  A
C700        H704   1.083       .  S
C705        C706   1.404       .  A
C705        C710   1.386       .  A
C705        H711   1.083       .  S
C706        C707   1.401       .  A
C707        C708   1.390       .  A
C707        H712   1.083       .  S
C708        C709   1.404       .  A
C708        H713   1.083   1_565  S
C709        C710   1.400       .  A
C710        H714   1.083       .  S
C715        C716   1.409       .  A
C715        C720   1.406       .  A
C715        H721   1.083       .  S
C716        C717   1.407   1_556  A
C717        C718   1.396       .  A
C717        H722   1.083       .  S
C718        C719   1.406       .  A
C718        H723   1.083       .  S
C719        C720   1.408   1_554  A
C720        H724   1.083       .  S
C725        C726   1.409       .  A
C725        C730   1.402       .  A
C725        H731   1.083       .  S
C726        C727   1.406       .  A
C727        C728   1.401       .  A
C727        H732   1.083       .  S
C728        C729   1.409       .  A
C728        H733   1.083       .  S
C729        C730   1.406       .  A
C730        H734   1.083       .  S
C735        C736   1.404       .  A
C735        C740   1.392       .  A
C735        H741   1.084       .  S
C736        C737   1.403       .  A
C737        C738   1.404       .  A
C737        H742   1.083       .  S
C738        C739   1.408       .  A
C738        H743   1.083       .  S
C739        C740   1.402       .  A
C740        H744   1.083       .  S
C745        C746   1.405       .  A
C745        C750   1.399       .  A
C745        H751   1.083       .  S
C746        C747   1.412       .  A
C747        C748   1.410       .  A
C747        H752   1.083       .  S
C748        C749   1.407       .  A
C748        H753   1.083       .  S
C749        C750   1.408       .  A
C750        H754   1.083       .  S
C755        C756   1.408       .  A
C755        C760   1.403       .  A
C755        H761   1.083       .  S
C756        C757   1.408   1_556  A
C757        C758   1.404       .  A
C757        H762   1.083       .  S
C758        C759   1.409       .  A
C758        H763   1.083       .  S
C759        C760   1.408   1_554  A
C760        H764   1.083       .  S
C765        C766   1.405       .  A
C765        C770   1.409       .  A
C765        H771   1.083       .  S
C766        C767   1.406       .  A
C767        C768   1.396   1_556  A
C767        H772   1.084   1_556  S
C768        C769   1.404   1_554  A
C768        H773   1.083       .  S
C769        C770   1.411       .  A
C770        H774   1.083       .  S
C775        C776   1.399       .  A
C775        C780   1.383       .  A
C775        H781   1.083       .  S
C776        C777   1.404       .  A
C777        C778   1.387       .  A
C777        H782   1.083       .  S
C778        C779   1.400       .  A
C778        H783   1.083       .  S
C779        C780   1.403       .  A
C780        H784   1.083       .  S
C785        C786   1.400       .  A
C785        C790   1.382       .  A
C785        H791   1.083       .  S
C786        C787   1.401       .  A
C787        C788   1.384       .  A
C787        H792   1.083       .  S
C788        C789   1.401       .  A
C788        H793   1.083       .  S
C789        C790   1.402       .  A
C790        H794   1.083       .  S
C795        C796   1.405   1_556  A
C795        C800   1.400       .  A
C795        H801   1.083       .  S
C796        C797   1.406       .  A
C797        C798   1.397       .  A
C797        H802   1.083       .  S
C798        C799   1.406   1_554  A
C798        H803   1.083       .  S
C799        C800   1.407       .  A
C800        H804   1.083       .  S
C805        C806   1.215       .  T
C807        C808   1.211       .  T
C809        C810   1.203       .  T
C811        C812   1.206       .  T
C813        C814   1.428       .  D
C813        H815   1.085   1_545  S
C814        H816   1.085       .  S
C817        C818   1.433   1_545  D
C817        H819   1.085       .  S
C818        H820   1.085       .  S
C821        C822   1.405       .  A
C821        C826   1.391       .  A
C821        H827   1.083       .  S
C822        C823   1.408       .  A
C823        C824   1.400       .  A
C823        H828   1.083       .  S
C824        C825   1.404       .  A
C824        H829   1.083       .  S
C825        C826   1.403       .  A
C826        H830   1.083       .  S
C831        C832   1.203       .  T
C833        C834   1.403       .  A
C833        C838   1.400       .  A
C833        H839   1.083       .  S
C834        C835   1.409       .  A
C835        C836   1.396       .  A
C835        H840   1.083       .  S
C836        C837   1.403       .  A
C836        H841   1.083       .  S
C837        C838   1.409       .  A
C838        H842   1.083       .  S
C843        C844   1.410   1_556  A
C843        C848   1.400       .  A
C843        H849   1.083       .  S
C844        C845   1.401       .  A
C845        C846   1.397       .  A
C845        H850   1.083       .  S
C846        C847   1.410       .  A
C846        H851   1.083       .  S
C847        C848   1.403   1_554  A
C848        H852   1.083       .  S
C853        C854   1.211       .  T
C855        C856   1.401       .  A
C855        C860   1.383       .  A
C855        H861   1.083       .  S
C856        C857   1.401       .  A
C857        C858   1.385       .  A
C857        H862   1.083       .  S
C858        C859   1.402       .  A
C858        H863   1.083       .  S
C859        C860   1.401       .  A
C860        H864   1.083       .  S
C865        C866   1.400       .  A
C865        C870   1.385       .  A
C865        H871   1.083       .  S
C866        C867   1.404       .  A
C867        C868   1.388       .  A
C867        H872   1.083       .  S
C868        C869   1.401       .  A
C868        H873   1.083       .  S
C869        C870   1.402       .  A
C870        H874   1.083       .  S
C875        C876   1.406   1_556  A
C875        C880   1.401       .  A
C875        H881   1.083       .  S
C876        C877   1.408       .  A
C877        C878   1.398       .  A
C877        H882   1.083       .  S
C878        C879   1.405       .  A
C878        H883   1.083       .  S
C879        C880   1.408   1_554  A
C880        H884   1.083       .  S
C885        C886   1.406       .  A
C885        C890   1.393       .  A
C885        H891   1.083       .  S
C886        C887   1.406       .  A
C887        C888   1.402       .  A
C887        H892   1.083       .  S
C888        C889   1.408       .  A
C888        H893   1.083       .  S
C889        C890   1.403       .  A
C890        H894   1.083       .  S
C895        C896   1.217       .  T
C897        C898   1.403       .  A
C897        C902   1.401       .  A
C897        H903   1.083       .  S
C898        C899   1.404       .  A
C899        C900   1.392       .  A
C899        H904   1.084       .  S
C900        C901   1.402       .  A
C900        H905   1.083       .  S
C901        C902   1.406       .  A
C902        H906   1.083       .  S
C907        C908   1.414       .  A
C907        C912   1.411       .  A
C907        H913   1.083       .  S
C908        C909   1.403       .  A
C909        C910   1.395       .  A
C909        H914   1.083       .  S
C910        C911   1.410       .  A
C910        H915   1.083       .  S
C911        C912   1.407       .  A
C912        H916   1.083       .  S
C917        C918   1.405       .  A
C917        C922   1.398       .  A
C917        H923   1.083       .  S
C918        C919   1.406   1_554  A
C919        C920   1.393       .  A
C919        H924   1.083       .  S
C920        C921   1.404   1_556  A
C920        H925   1.083       .  S
C921        C922   1.406       .  A
C922        H926   1.083       .  S
C927        C928   1.200       .  T
C929        C930   1.405   1_554  A
C929        C934   1.394       .  A
C929        H935   1.084       .  S
C930        C931   1.402       .  A
C931        C932   1.403       .  A
C931        H936   1.083       .  S
C932        C933   1.410       .  A
C932        H937   1.083       .  S
C933        C934   1.402   1_556  A
C934        H938   1.083       .  S
C939        C940   1.403       .  A
C939        C944   1.386       .  A
C939        H945   1.083       .  S
C940        C941   1.399       .  A
C941        C942   1.383       .  A
C941        H946   1.083       .  S
C942        C943   1.402       .  A
C942        H947   1.083       .  S
C943        C944   1.400       .  A
C944        H948   1.083       .  S
C949        C950   1.401       .  A
C949        C954   1.378       .  A
C949        H955   1.083       .  S
C950        C951   1.399       .  A
C951        C952   1.384       .  A
C951        H956   1.083       .  S
C952        C953   1.403       .  A
C952        H957   1.083       .  S
C953        C954   1.398       .  A
C954        H958   1.083       .  S
C959        C960   1.405       .  A
C959        C964   1.396       .  A
C959        H965   1.083       .  S
C960        C961   1.405   1_556  A
C961        C962   1.394       .  A
C961        H966   1.083       .  S
C962        C963   1.405       .  A
C962        H967   1.083       .  S
C963        C964   1.406   1_554  A
C964        H968   1.083       .  S
