geometry optimzed in LAMMPS
_audit_creation_date              2020-11-30 
_audit_creation_method            'lammps2cif' 
_symmetry_space_group_name_H-M    'P1' 
_symmetry_Int_Tables_number       1 
_symmetry_cell_setting            triclinic 
loop_ 
_symmetry_equiv_pos_as_xyz 
  x,y,z 
_cell_length_a                    42.58572563 
_cell_length_b                    42.80209708544939 
_cell_length_c                    42.70669431038657 
_cell_angle_alpha                 90.02947772884009 
_cell_angle_beta                  89.22025590408059 
_cell_angle_gamma                 89.96473907812417 
loop_ 
_atom_site_label 
_atom_site_type_symbol 
_atom_site_fract_x 
_atom_site_fract_y 
_atom_site_fract_z 
_atom_site_charge 
C1          C  0.79053104  0.49109104  0.72272133     0.03100
C2          C  0.82379881  0.49148031  0.72173303     0.03100
C3          C  0.84041832  0.48534588  0.74961122    -0.17400
C4          C  0.82469500  0.48088812  0.77877510     0.03100
C5          C  0.79138548  0.48200565  0.77909190     0.03100
C6          C  0.77519343  0.48626052  0.75123935    -0.17400
H7          H  0.74966561  0.48675853  0.75196111     0.05100
H8          H  0.86579451  0.48452877  0.74853009     0.05100
C9          C  0.49076078  0.72488080  0.85452455     0.03100
C10         C  0.49076035  0.72525473  0.82131260     0.03100
C11         C  0.47742881  0.75079310  0.80603767    -0.17400
C12         C  0.46951223  0.77837707  0.82168012     0.03100
C13         C  0.47268546  0.77992978  0.85467726     0.03100
C14         C  0.48180663  0.75246404  0.87080091    -0.17400
H15         H  0.48268962  0.75278688  0.89614572     0.05100
H16         H  0.47598325  0.75031284  0.78065474     0.05100
C17         C  0.75934415  0.84740436  0.47290238     0.03100
C18         C  0.75893202  0.81444767  0.46953947     0.03100
C19         C  0.73088932  0.79830264  0.47420689    -0.17400
C20         C  0.70309621  0.81347096  0.48276784     0.03100
C21         C  0.70310863  0.84624637  0.48686943     0.03100
C22         C  0.73101868  0.86292657  0.48072100    -0.17400
H23         H  0.73065150  0.88815162  0.48238999     0.05100
H24         H  0.73102853  0.77297025  0.47254421     0.05100
O25         O  0.56535502  0.49597350  0.94652507    -0.84500
O26         O  0.55158159  0.45768334  0.99883550    -0.81600
C27         C  0.54186653  0.43503598  0.01511957     0.98900
O28         O  0.52934795  0.41151057  0.00168845    -0.81600
O29         O  0.47764736  0.43108450  0.96606745    -0.84200
C30         C  0.46147150  0.43996556  0.94328612     1.03500
O31         O  0.47500639  0.44803714  0.91774501    -0.77000
O32         O  0.51676883  0.49712167  0.92988656    -0.77200
C33         C  0.54116697  0.51150565  0.93798180     1.03400
O34         O  0.59367280  0.43962637  0.91887092    -0.84500
O35         O  0.58404934  0.40490412  0.97031168    -0.81600
C36         C  0.57478355  0.37841764  0.96047018     0.99000
O37         O  0.54930535  0.37673224  0.94640808    -0.81600
O38         O  0.49652038  0.39090724  0.91401517    -0.84200
C39         C  0.50699188  0.39689265  0.88655042     1.03400
O40         O  0.52569934  0.41908061  0.88248731    -0.77000
O41         O  0.56427033  0.46907430  0.89003655    -0.77200
C42         C  0.59077458  0.45694519  0.89560330     1.03400
Cr43       Cr  0.57099551  0.44904343  0.95755354     1.93700
Cr44       Cr  0.51457169  0.40505748  0.95623128     1.93200
Cr45       Cr  0.52121954  0.45700252  0.90754096     1.39100
O46         O  0.53522699  0.43753765  0.94098820    -1.22300
O47         O  0.47851321  0.56518593  0.59275671    -0.84500
O48         O  0.51396906  0.51216608  0.57748014    -0.81600
C49         C  0.53621566  0.49504473  0.56794226     0.98900
O50         O  0.56216387  0.50753910  0.55931912    -0.81600
O51         O  0.55079107  0.54644455  0.50815528    -0.84200
C52         C  0.54268629  0.56975374  0.49218286     1.03500
O53         O  0.53423512  0.59492037  0.50595661    -0.77000
O54         O  0.48213136  0.58213599  0.54434432    -0.77200
C55         C  0.46556583  0.57418021  0.56757281     1.03400
O56         O  0.53313570  0.58759957  0.62557414    -0.84500
O57         O  0.56561570  0.53343532  0.61579607    -0.81600
C58         C  0.59318597  0.54305589  0.60909426     0.99000
O59         O  0.59737026  0.55974264  0.58535522    -0.81600
O60         O  0.59043396  0.59501653  0.53333119    -0.84200
C61         C  0.58427355  0.62226889  0.54354937     1.03400
O62         O  0.56014511  0.62677423  0.55986568    -0.77000
O63         O  0.50796234  0.61972209  0.59488136    -0.77200
C64         C  0.52079328  0.61376148  0.62095500     1.03400
Cr65       Cr  0.52364838  0.55078979  0.60044006     1.93700
Cr66       Cr  0.57277404  0.55305370  0.54785412     1.93200
Cr67       Cr  0.52211810  0.60325566  0.55204561     1.39100
O68         O  0.53914426  0.56869379  0.56638526    -1.22300
O69         O  0.42778452  0.90801257  0.50233942    -0.84500
O70         O  0.47886496  0.91569667  0.54126111    -0.81600
C71         C  0.49516299  0.92520674  0.56360937     0.98900
O72         O  0.48198506  0.93715281  0.58781369    -0.81600
O73         O  0.44907138  0.98988421  0.57052064    -0.84200
C74         C  0.42765626  0.00888886  0.56470663     1.03500
O75         O  0.40152510  0.99814624  0.55495862    -0.77000
O76         O  0.41691307  0.95826016  0.50391840    -0.77200
C77         C  0.42295223  0.93398906  0.48825149     1.03400
O78         O  0.39578723  0.87963479  0.55610925    -0.84500
O79         O  0.44841218  0.88316754  0.59325428    -0.81600
C80         C  0.43914558  0.89324849  0.61997047     0.99000
O81         O  0.42476058  0.91844432  0.62136554    -0.81600
O82         O  0.39442253  0.97065501  0.60958673    -0.84200
C83         C  0.36776310  0.95858832  0.60375455     1.03400
O84         O  0.36256095  0.94702579  0.57733845    -0.77000
O85         O  0.37188035  0.91154807  0.52473289    -0.77200
C86         C  0.37490767  0.88419496  0.53620266     1.03400
Cr87       Cr  0.43668233  0.89895507  0.54898107     1.93700
Cr88       Cr  0.43685212  0.95313343  0.59489744     1.93200
Cr89       Cr  0.39042203  0.95289312  0.54143824     1.39100
O90         O  0.42172223  0.93513992  0.56155448    -1.22300
C91         C  0.48197039  0.28008968  0.68544172     0.03100
C92         C  0.47894631  0.28241288  0.65232607     0.03100
C93         C  0.47254122  0.25466733  0.63518034    -0.17400
C94         C  0.46930310  0.22517950  0.65001720     0.03100
C95         C  0.47379515  0.22352607  0.68279541     0.03100
C96         C  0.48016590  0.25070747  0.69952545    -0.17400
H97         H  0.48267668  0.24906198  0.72477145     0.05100
H98         H  0.46969016  0.25611753  0.61005422     0.05100
O99         O  0.48144063  0.06145593  0.91524396    -0.84500
O100        O  0.44158931  0.00964431  0.92882955    -0.81600
C101        C  0.41757366  0.99379951  0.93589198     0.98900
O102        O  0.39187034  0.00797688  0.94227476    -0.81600
O103        O  0.40556282  0.04511590  0.99340739    -0.84200
C104        C  0.41082267  0.06792282  0.01088896     1.03500
O105        O  0.42123364  0.09320464  0.99855470    -0.77000
O106        O  0.47417481  0.07767850  0.96308705    -0.77200
C107        C  0.49263550  0.07224123  0.94076251     1.03400
O108        O  0.42958413  0.08499268  0.87881997    -0.84500
O109        O  0.39305373  0.03448492  0.88730054    -0.81600
C110        C  0.36605822  0.04670956  0.89246768     0.99000
O111        O  0.36189858  0.06325906  0.91632096    -0.81600
O112        O  0.36818736  0.09705421  0.96948371    -0.84200
C113        C  0.37582334  0.12399952  0.95919536     1.03400
O114        O  0.40042801  0.12705809  0.94328460    -0.77000
O115        O  0.45437874  0.11650465  0.91018214    -0.77200
C116        C  0.44560671  0.10907494  0.88272245     1.03400
Cr117      Cr  0.43561108  0.04861390  0.90493103     1.93700
Cr118      Cr  0.38413465  0.05404671  0.95437186     1.93200
Cr119      Cr  0.43665397  0.10140422  0.95293064     1.39100
O120        O  0.41895587  0.06793512  0.93747406    -1.22300
C121        C  0.70906519  0.15484544  0.98881762     0.03100
C122        C  0.70981110  0.18784544  0.99231887     0.03100
C123        C  0.73711594  0.20236270  0.00233707    -0.17400
C124        C  0.76475610  0.18584250  0.00749243     0.03100
C125        C  0.76481130  0.15287938  0.00517105     0.03100
C126        C  0.73699802  0.13780864  0.99505361    -0.17400
H127        H  0.73742825  0.11279087  0.99151021     0.05100
H128        H  0.73746044  0.22768934  0.00420588     0.05100
C129        C  0.16976069  0.98648651  0.72117926     0.03100
C130        C  0.13737424  0.99266374  0.71780735     0.03100
C131        C  0.12075440  0.00687339  0.74306987    -0.17400
C132        C  0.13557150  0.01404417  0.77183145     0.03100
C133        C  0.16862336  0.00997142  0.77333610     0.03100
C134        C  0.18479436  0.99679755  0.74805000    -0.17400
H135        H  0.21011242  0.99417008  0.74956076     0.05100
H136        H  0.09612465  0.01212107  0.74026677     0.05100
C137        C  0.99672881  0.77730898  0.18562168     0.03100
C138        C  0.99487833  0.77577175  0.15253031     0.03100
C139        C  0.98823096  0.74653028  0.13858590    -0.17400
C140        C  0.98253823  0.71940828  0.15687727     0.03100
C141        C  0.98447534  0.72168482  0.18995180     0.03100
C142        C  0.99253156  0.75019114  0.20336469    -0.17400
H143        H  0.99391646  0.75171622  0.22871754     0.05100
H144        H  0.98673331  0.74501586  0.11331879     0.05100
C145        C  0.25573780  0.68699180  0.49323580     0.03100
C146        C  0.25589195  0.65462910  0.50028229     0.03100
C147        C  0.22863749  0.63670650  0.49367286    -0.17400
C148        C  0.20078208  0.65089190  0.48256002     0.03100
C149        C  0.20065992  0.68376483  0.47925238     0.03100
C150        C  0.22819922  0.70078819  0.48308487    -0.17400
H151        H  0.22777230  0.72591501  0.47940747     0.05100
H152        H  0.22897775  0.61173884  0.49765581     0.05100
C153        C  0.65900188  0.48057509  0.22918284     0.03100
C154        C  0.62581943  0.48261739  0.22857510     0.03100
C155        C  0.60970504  0.49289875  0.25590771    -0.17400
C156        C  0.62601878  0.50164947  0.28324219     0.03100
C157        C  0.65935676  0.50176381  0.28221401     0.03100
C158        C  0.67494009  0.49183808  0.25514578    -0.17400
H159        H  0.70046778  0.49145808  0.25483399     0.05100
H160        H  0.58426317  0.49352903  0.25612279     0.05100
O161        O  0.97779417  0.54111651  0.41486850    -0.84500
O162        O  0.93321688  0.49487640  0.43028890    -0.81600
C163        C  0.90762685  0.48204544  0.43776330     0.98900
O164        O  0.88343752  0.49884304  0.44393220    -0.81600
O165        O  0.89698796  0.53574643  0.49535152    -0.84200
C166        C  0.90881532  0.55690491  0.51181811     1.03500
O167        O  0.92339975  0.57970055  0.49884281    -0.77000
O168        O  0.97422233  0.55736374  0.46324296    -0.77200
C169        C  0.99100581  0.54890729  0.44039437     1.03400
O170        O  0.92908502  0.57049395  0.37928944    -0.84500
O171        O  0.88690503  0.52179776  0.38871826    -0.81600
C172        C  0.86129939  0.53653931  0.39400895     0.99000
O173        O  0.86118939  0.55707542  0.41461016    -0.81600
O174        O  0.86955002  0.59089646  0.46749204    -0.84200
C175        C  0.88142098  0.61653476  0.45801999     1.03400
O176        O  0.90707463  0.61607565  0.44362143    -0.77000
O177        O  0.95833463  0.59828726  0.41068544    -0.77200
C178        C  0.94808334  0.59247050  0.38330309     1.03400
Cr179      Cr  0.93100601  0.53335715  0.40553318     1.93700
Cr180      Cr  0.88015839  0.54602203  0.45425092     1.93200
Cr181      Cr  0.93940518  0.58559777  0.45336320     1.39100
O182        O  0.91721483  0.55463629  0.43830612    -1.22300
O183        O  0.04718115  0.91167503  0.49149464    -0.84500
O184        O  0.99372365  0.93231968  0.46310877    -0.81600
C185        C  0.97378627  0.93988672  0.44339050     0.98900
O186        O  0.98319970  0.95098246  0.41724134    -0.81600
O187        O  0.02338046  0.99970891  0.43338440    -0.84200
C188        C  0.04785918  0.01521939  0.43824831     1.03500
O189        O  0.07413740  0.00101260  0.44118912    -0.77000
O190        O  0.06754105  0.95880192  0.49038710    -0.77200
C191        C  0.05860120  0.93525876  0.50566777     1.03400
O192        O  0.06370382  0.88275844  0.43148789    -0.84500
O193        O  0.00881001  0.89701902  0.40524095    -0.81600
C194        C  0.01690165  0.90606724  0.37780884     0.99000
O195        O  0.03207978  0.93086975  0.37434826    -0.81600
O196        O  0.06825548  0.98231197  0.38488151    -0.84200
C197        C  0.09555441  0.97033097  0.38594203     1.03400
O198        O  0.10120813  0.94925331  0.40535240    -0.77000
O199        O  0.09953502  0.90950878  0.45563642    -0.77200
C200        C  0.08985250  0.88373000  0.44434528     1.03400
Cr201      Cr  0.02927429  0.90818583  0.44715335     1.93700
Cr202      Cr  0.02778824  0.96463123  0.40443434     1.93200
Cr203      Cr  0.08336577  0.95403797  0.44727473     1.39100
O204        O  0.04677286  0.94236205  0.43323909    -1.22300
O205        O  0.89006482  0.49717510  0.06508280    -0.84500
O206        O  0.91310250  0.46690936  0.01295490    -0.81600
C207        C  0.92000416  0.44680513  0.99291704     0.98900
O208        O  0.92975758  0.42036329  0.00280850    -0.81600
O209        O  0.97723919  0.43329393  0.04724203    -0.84200
C210        C  0.99070436  0.43895638  0.07274441     1.03500
O211        O  0.97423657  0.44226736  0.09778888    -0.77000
O212        O  0.93549172  0.49300143  0.08853824    -0.77200
C213        C  0.91385518  0.50969811  0.07794788     1.03400
O214        O  0.85532607  0.44021478  0.07919283    -0.84500
O215        O  0.87310398  0.41159240  0.02488457    -0.81600
C216        C  0.88083798  0.38378165  0.03264611     0.99000
O217        O  0.90339950  0.37954453  0.05053012    -0.81600
O218        O  0.95213536  0.38687225  0.09057245    -0.84200
C219        C  0.93777338  0.38919827  0.11690620     1.03400
O220        O  0.91736708  0.40976815  0.12042096    -0.77000
O221        O  0.88184341  0.46099465  0.11718014    -0.77200
C222        C  0.85646321  0.44929337  0.10700704     1.03400
Cr223      Cr  0.88499884  0.45314957  0.04661266     1.93700
Cr224      Cr  0.93936069  0.40712138  0.04869791     1.93200
Cr225      Cr  0.92677900  0.45072288  0.10353366     1.39100
O226        O  0.91714178  0.43733166  0.06619825    -1.22300
C227        C  0.29835537  0.00344522  0.28468104     0.03100
C228        C  0.33129179  0.99993211  0.28274478     0.03100
C229        C  0.34667423  0.00907033  0.25442734    -0.17400
C230        C  0.32951647  0.02004149  0.22811731     0.03100
C231        C  0.29621216  0.02070849  0.23039649     0.03100
C232        C  0.28156495  0.01178112  0.25822358    -0.17400
H233        H  0.25610172  0.01304958  0.25992210     0.05100
H234        H  0.37205890  0.00839744  0.25313641     0.05100
O235        O  0.98937152  0.04379241  0.07512925    -0.84500
O236        O  0.03953737  0.00500199  0.09408340    -0.81600
C237        C  0.05052580  0.98839453  0.07205379     0.98900
O238        O  0.06454388  0.00108267  0.04884377    -0.81600
O239        O  0.08055163  0.05033103  0.00752007    -0.84200
C240        C  0.05712693  0.05692277  0.99090548     1.03500
O241        O  0.03365833  0.07114052  0.00305725    -0.77000
O242        O  0.99262663  0.08980000  0.05231029    -0.77200
C243        C  0.97638655  0.06686950  0.06167357     1.03400
O244        O  0.01506204  0.09242922  0.11098760    -0.84500
O245        O  0.06767951  0.05814388  0.12544043    -0.81600
C246        C  0.09445719  0.04618866  0.12057465     0.99000
O247        O  0.09942765  0.03103541  0.09582875    -0.81600
O248        O  0.11070074  0.08269002  0.05886417    -0.84200
C249        C  0.10468568  0.10793183  0.04487490     1.03400
O250        O  0.08023179  0.10997516  0.02899289    -0.77000
O251        O  0.04345210  0.12307126  0.08128524    -0.77200
C252        C  0.03010751  0.11738687  0.10733042     1.03400
Cr253      Cr  0.02966604  0.05034527  0.09865149     1.93700
Cr254      Cr  0.08596509  0.04291290  0.05322799     1.93200
Cr255      Cr  0.03812428  0.09576050  0.04312097     1.39100
O256        O  0.05057982  0.06221220  0.06435159    -1.22300
C257        C  0.96766495  0.27498259  0.34760139     0.03100
C258        C  0.96865434  0.27749378  0.31463868     0.03100
C259        C  0.97614366  0.25159383  0.29643781    -0.17400
C260        C  0.98684534  0.22395490  0.30948004     0.03100
C261        C  0.98949330  0.22142579  0.34246032     0.03100
C262        C  0.97841306  0.24675223  0.36126703    -0.17400
H263        H  0.97930082  0.24487831  0.38652515     0.05100
H264        H  0.97572447  0.25376760  0.27107392     0.05100
C265        C  0.24603608  0.34917937  0.98106092     0.03100
C266        C  0.24433247  0.31655348  0.97604468     0.03100
C267        C  0.21612077  0.30083146  0.98193718    -0.17400
C268        C  0.19086024  0.31521927  0.99746223     0.03100
C269        C  0.19170369  0.34806320  0.00188390     0.03100
C270        C  0.21926186  0.36462226  0.99333826    -0.17400
H271        H  0.22034719  0.38948651  0.99790942     0.05100
H272        H  0.21574718  0.27558264  0.97918184     0.05100
C273        C  0.15854132  0.17556268  0.02451142    -0.11000
C274        C  0.14551639  0.19906768  0.04373137     0.11500
C275        C  0.12228594  0.19105556  0.06634915    -0.02900
C276        C  0.11272515  0.15961224  0.06875243    -0.05600
C277        C  0.12403652  0.13653608  0.04803599    -0.16400
C278        C  0.14770039  0.14441450  0.02591487     0.02600
C279        C  0.15368380  0.23223330  0.03669172     0.12500
C280        C  0.10577890  0.21596353  0.08596483     0.63100
H281        H  0.09431997  0.15329914  0.08530547     0.12500
C282        C  0.16028450  0.12014884  0.00314594     0.55300
H283        H  0.17601555  0.18224609  0.00707416     0.08300
C284        C  0.17947622  0.24765805  0.05034107    -0.05500
C285        C  0.18628709  0.27856142  0.04105852    -0.06200
C286        C  0.17085902  0.29295685  0.01585097    -0.15800
C287        C  0.14490271  0.27741271  0.00242060    -0.01400
C288        C  0.13623950  0.24765866  0.01374990    -0.08900
C289        C  0.20164880  0.23053688  0.07202897     0.65300
H290        H  0.20679990  0.29012956  0.05032359     0.10800
C291        C  0.12648048  0.29201669  0.97618006     0.63700
H292        H  0.11655894  0.23539112  0.00367641     0.08100
F293        F  0.18392693  0.13208515  0.98407344    -0.19300
F294        F  0.13634037  0.10966595  0.98426162    -0.15500
F295        F  0.17232326  0.09518011  0.01966577    -0.19000
F296        F  0.08919472  0.23571571  0.06662325    -0.22400
F297        F  0.12730821  0.23334841  0.10239184    -0.23900
F298        F  0.08493010  0.20305313  0.10745543    -0.17900
F299        F  0.10363861  0.27208368  0.96494980    -0.20400
F300        F  0.14621872  0.29975164  0.95142480    -0.21500
F301        F  0.11168553  0.31844142  0.98749880    -0.18700
F302        F  0.22559266  0.24971330  0.08226155    -0.18800
F303        F  0.21513835  0.20559456  0.05625363    -0.22600
F304        F  0.18564786  0.21943769  0.09803694    -0.24200
C305        C  0.01455830  0.18054834  0.16826042    -0.11000
C306        C  0.02529787  0.16505714  0.19522004     0.11500
C307        C  0.04051877  0.13591755  0.19216921    -0.02900
C308        C  0.04504634  0.12338079  0.16209060    -0.05600
C309        C  0.03276583  0.13772427  0.13526184    -0.16400
C310        C  0.01748017  0.16687568  0.13817291     0.02600
C311        C  0.01717454  0.17793137  0.22662383     0.12500
C312        C  0.04974809  0.11687131  0.22068060     0.63100
H313        H  0.05610757  0.10125041  0.15972252     0.12500
C314        C  0.00267220  0.18221556  0.11001662     0.55300
H315        H  0.00243014  0.20254013  0.17122211     0.08300
C316        C  0.03890996  0.19372821  0.24592013    -0.05500
C317        C  0.02902924  0.20346815  0.27596815    -0.06200
C318        C  0.99764898  0.20061362  0.28612515    -0.15800
C319        C  0.97574531  0.18566758  0.26628245    -0.01400
C320        C  0.98622050  0.17373779  0.23735929    -0.08900
C321        C  0.07178653  0.20317521  0.23541262     0.65300
H322        H  0.04517268  0.21669892  0.29026395     0.10800
C323        C  0.94062876  0.18416011  0.27299591     0.63700
H324        H  0.96959641  0.16212336  0.22224852     0.08100
F325        F  0.98863098  0.21040831  0.11773791    -0.19300
F326        F  0.97996951  0.16273868  0.09787495    -0.15500
F327        F  0.02537534  0.18771870  0.08725142    -0.19000
F328        F  0.02338044  0.11073200  0.23891724    -0.22400
F329        F  0.07124224  0.13304357  0.23831808    -0.23900
F330        F  0.06317859  0.08859374  0.21237358    -0.17900
F331        F  0.92514882  0.20198322  0.25101257    -0.20400
F332        F  0.93222811  0.19499513  0.30242802    -0.21500
F333        F  0.93055286  0.15354987  0.27063396    -0.18700
F334        F  0.09348428  0.19101700  0.25590960    -0.18800
F335        F  0.07401232  0.23541116  0.23592166    -0.22600
F336        F  0.07956569  0.19319757  0.20552488    -0.24200
C337        C  0.23063853  0.01845113  0.17224741    -0.11000
C338        C  0.21497729  0.04626513  0.18013401     0.11500
C339        C  0.22975560  0.06825963  0.19977893    -0.02900
C340        C  0.25932919  0.06085384  0.21219211    -0.05600
C341        C  0.27413973  0.03201300  0.20609872    -0.16400
C342        C  0.25997396  0.01081152  0.18508783     0.02600
C343        C  0.18307324  0.05139287  0.16727486     0.12500
C344        C  0.21376677  0.09883921  0.20837621     0.63100
H345        H  0.26997269  0.07641550  0.22900672     0.12500
C346        C  0.27540157  0.97985051  0.17704199     0.55300
H347        H  0.21913635  0.00230703  0.15659715     0.08300
C348        C  0.17832120  0.06575765  0.13792540    -0.05500
C349        C  0.14794669  0.06608141  0.12568213    -0.06200
C350        C  0.12208562  0.05197586  0.14088061    -0.15800
C351        C  0.12649864  0.03899001  0.17111573    -0.01400
C352        C  0.15709341  0.03875452  0.18360301    -0.08900
C353        C  0.20425732  0.07980038  0.11754215     0.65300
H354        H  0.14490329  0.07618629  0.10275047     0.10800
C355        C  0.10072935  0.02385549  0.19063825     0.63700
H356        H  0.16095924  0.02770211  0.20608400     0.08100
F357        F  0.25738412  0.96229705  0.15683205    -0.19300
F358        F  0.27989440  0.96243973  0.20388427    -0.15500
F359        F  0.30404266  0.98539242  0.16256937    -0.19000
F360        F  0.18535814  0.09287987  0.22325422    -0.22400
F361        F  0.20845820  0.11610998  0.18162991    -0.23900
F362        F  0.23186808  0.11671327  0.22824027    -0.17900
F363        F  0.10634572  0.99210198  0.19261536    -0.20400
F364        F  0.07118678  0.02847970  0.17861317    -0.21500
F365        F  0.10090279  0.03627485  0.22055873    -0.18700
F366        F  0.19705902  0.11067821  0.11128536    -0.18800
F367        F  0.20598855  0.06361477  0.08952857    -0.22600
F368        F  0.23356053  0.07896946  0.13098749    -0.24200
C369        C  0.11652696  0.39623598  0.01012374    -0.11000
C370        C  0.11678866  0.40441405  0.04204254     0.11500
C371        C  0.14257816  0.39426399  0.06033880    -0.02900
C372        C  0.16490278  0.37370787  0.04686311    -0.05600
C373        C  0.16463905  0.36604435  0.01491646    -0.16400
C374        C  0.14117951  0.37945605  0.99573615     0.02600
C375        C  0.08842290  0.42101544  0.05548516     0.12500
C376        C  0.14838195  0.40583956  0.09336705     0.63100
H377        H  0.18390205  0.36489998  0.06102947     0.12500
C378        C  0.14145337  0.37853716  0.96009782     0.55300
H379        H  0.09716363  0.40389930  0.99583641     0.08300
C380        C  0.07328957  0.44620565  0.04004111    -0.05500
C381        C  0.04167953  0.45291032  0.04763545    -0.06200
C382        C  0.02582401  0.43805839  0.07256977    -0.15800
C383        C  0.04329350  0.41773855  0.09207404    -0.01400
C384        C  0.07341928  0.40809207  0.08195778    -0.08900
C385        C  0.08910780  0.46649003  0.01535988     0.65300
H386        H  0.02901483  0.46962639  0.03349399     0.10800
C387        C  0.02985860  0.40385418  0.12194313     0.63700
H388        H  0.08450827  0.38875830  0.09370945     0.08100
F389        F  0.14438055  0.40873971  0.94893329    -0.19300
F390        F  0.11342394  0.36642175  0.94950292    -0.15500
F391        F  0.16572267  0.36104474  0.94741607    -0.19000
F392        F  0.13734232  0.38416811  0.11481608    -0.22400
F393        F  0.13407335  0.43437201  0.09890261    -0.23900
F394        F  0.18025658  0.40985773  0.09794325    -0.17900
F395        F  0.00834658  0.38111740  0.11461530    -0.20400
F396        F  0.01581212  0.42690074  0.13999438    -0.21500
F397        F  0.05299717  0.39020822  0.13987362    -0.18700
F398        F  0.08455122  0.49760711  0.02296620    -0.18800
F399        F  0.07583289  0.46079337  0.98653883    -0.22600
F400        F  0.12114505  0.46149829  0.01321236    -0.24200
C401        C  0.94886206  0.33100141  0.18319993    -0.11000
C402        C  0.95379870  0.35195472  0.20812323     0.11500
C403        C  0.95787072  0.38408071  0.20187424    -0.02900
C404        C  0.95468240  0.39446133  0.17096924    -0.05600
C405        C  0.94785810  0.37394333  0.14618973    -0.16400
C406        C  0.94564612  0.34159127  0.15207192     0.02600
C407        C  0.95661683  0.33928724  0.24027823     0.12500
C408        C  0.96513307  0.40737146  0.22772465     0.63100
H409        H  0.95649205  0.41920909  0.16593161     0.12500
C410        C  0.93910924  0.31880643  0.12585040     0.55300
H411        H  0.94698690  0.30631767  0.18848226     0.08300
C412        C  0.93016987  0.33108548  0.25907015    -0.05500
C413        C  0.93511843  0.31512700  0.28745896    -0.06200
C414        C  0.96543984  0.30681083  0.29677376    -0.15800
C415        C  0.99182805  0.31797321  0.27944531    -0.01400
C416        C  0.98686334  0.33373191  0.25127595    -0.08900
C417        C  0.89695350  0.33734122  0.24824623     0.65300
H418        H  0.91531615  0.30595825  0.30071662     0.10800
C419        C  0.02567101  0.31084959  0.28777401     0.63700
H420        H  0.00692264  0.34032284  0.23682018     0.08100
F421        F  0.93778907  0.28828844  0.13653252    -0.19300
F422        F  0.96274937  0.32079843  0.10342558    -0.15500
F423        F  0.91068657  0.32594479  0.11228462    -0.19000
F424        F  0.99381556  0.40040423  0.24075694    -0.22400
F425        F  0.94215748  0.40621449  0.25085465    -0.23900
F426        F  0.96654834  0.43771589  0.21657932    -0.17900
F427        F  0.03876766  0.29162253  0.26505199    -0.20400
F428        F  0.02860374  0.29637090  0.31649739    -0.21500
F429        F  0.04252100  0.33843855  0.28868932    -0.18700
F430        F  0.87483285  0.32894852  0.27076695    -0.18800
F431        F  0.89113789  0.32038673  0.22139893    -0.22600
F432        F  0.89313044  0.36875784  0.24193937    -0.24200
C433        C  0.03637124  0.16529014  0.39436090    -0.11000
C434        C  0.02209477  0.13659753  0.38760795     0.11500
C435        C  0.99782482  0.13568436  0.36519978    -0.02900
C436        C  0.98831495  0.16376210  0.35088766    -0.05600
C437        C  0.00266848  0.19258425  0.35740451    -0.16400
C438        C  0.02803293  0.19310392  0.37879484     0.02600
C439        C  0.03261360  0.10791356  0.40458916     0.12500
C440        C  0.98174913  0.10522264  0.35659088     0.63100
H441        H  0.96893616  0.16342330  0.33482292     0.12500
C442        C  0.04749536  0.22193439  0.38575972     0.55300
H443        H  0.05482130  0.16583020  0.41161352     0.08300
C444        C  0.06036280  0.09138006  0.39614390    -0.05500
C445        C  0.06684740  0.06270025  0.41113002    -0.06200
C446        C  0.04594415  0.04958122  0.43324816    -0.15800
C447        C  0.01926644  0.06719089  0.44302242    -0.01400
C448        C  0.01329093  0.09618538  0.42868996    -0.08900
C449        C  0.08213636  0.10313193  0.37026707     0.65300
H450        H  0.08694438  0.04896889  0.40359400     0.10800
C451        C  0.99507507  0.05454646  0.46612278     0.63700
H452        H  0.99232968  0.10917291  0.43516754     0.08100
F453        F  0.07904309  0.21409761  0.38572785    -0.19300
F454        F  0.03922036  0.23324249  0.41506127    -0.15500
F455        F  0.04382122  0.24537996  0.36389906    -0.19000
F456        F  0.96495975  0.09391677  0.38206788    -0.22400
F457        F  0.00388502  0.08329093  0.34742573    -0.23900
F458        F  0.96106510  0.10910809  0.33215152    -0.17900
F459        F  0.00870639  0.03464981  0.48755316    -0.20400
F460        F  0.97213974  0.03859084  0.44998398    -0.21500
F461        F  0.98098792  0.07867506  0.48272959    -0.18700
F462        F  0.10623547  0.08224612  0.36386038    -0.18800
F463        F  0.09539526  0.13117955  0.37910737    -0.22600
F464        F  0.06552461  0.10750646  0.34301409    -0.24200
C465        C  0.16387354  0.98226372  0.33052275    -0.11000
C466        C  0.18613083  0.99313147  0.35205507     0.11500
C467        C  0.17626368  0.00230554  0.38245323    -0.02900
C468        C  0.14467115  0.99808049  0.39096467    -0.05600
C469        C  0.12314032  0.98433769  0.37055573    -0.16400
C470        C  0.13232763  0.97717420  0.33955331     0.02600
C471        C  0.21949587  0.99514747  0.34189625     0.12500
C472        C  0.19916032  0.01491939  0.40639113     0.63100
H473        H  0.13690352  0.00336748  0.41464975     0.12500
C474        C  0.10904910  0.96361409  0.31673645     0.55300
H475        H  0.17172221  0.97668026  0.30694323     0.08300
C476        C  0.23867026  0.96832805  0.33744748    -0.05500
C477        C  0.26837898  0.97199344  0.32291836    -0.06200
C478        C  0.27920901  0.00157759  0.31374031    -0.15800
C479        C  0.26201889  0.02850204  0.32304226    -0.01400
C480        C  0.23180222  0.02475054  0.33557147    -0.08900
C481        C  0.22724382  0.93598140  0.34662153     0.65300
H482        H  0.28175359  0.95163021  0.31569035     0.10800
C483        C  0.27322598  0.06163870  0.31709687     0.63700
H484        H  0.21719031  0.04521089  0.33927947     0.08100
F485        F  0.12266385  0.95825201  0.28760034    -0.19300
F486        F  0.08443230  0.98432978  0.31311470    -0.15500
F487        F  0.09743735  0.93555735  0.32801712    -0.19000
F488        F  0.21084342  0.04346381  0.39670186    -0.22400
F489        F  0.22378149  0.99421725  0.40999035    -0.23900
F490        F  0.18496786  0.01922441  0.43543392    -0.17900
F491        F  0.27169456  0.07829396  0.34484793    -0.20400
F492        F  0.25394143  0.07581358  0.29551141    -0.21500
F493        F  0.30382720  0.06290711  0.30597452    -0.18700
F494        F  0.25097595  0.91397319  0.34395792    -0.18800
F495        F  0.20297516  0.92694341  0.32747962    -0.22600
F496        F  0.21671027  0.93614624  0.37739661    -0.24200
C497        C  0.91650209  0.33010287  0.39752043    -0.11000
C498        C  0.93406644  0.35785616  0.39594973     0.11500
C499        C  0.96381410  0.35749802  0.38057013    -0.02900
C500        C  0.97463289  0.32951342  0.36673291    -0.05600
C501        C  0.95664227  0.30204094  0.36717971    -0.16400
C502        C  0.92713897  0.30217124  0.38310278     0.02600
C503        C  0.92087246  0.38724356  0.41008153     0.12500
C504        C  0.98379532  0.38681877  0.37809165     0.63100
H505        H  0.99707423  0.32908617  0.35463158     0.12500
C506        C  0.90663690  0.27317189  0.38418597     0.55300
H507        H  0.89407439  0.33067284  0.40974918     0.08300
C508        C  0.89933595  0.40653284  0.39394859    -0.05500
C509        C  0.89211661  0.43643301  0.40625051    -0.06200
C510        C  0.90581624  0.44755794  0.43390333    -0.15800
C511        C  0.92496717  0.42705523  0.45136670    -0.01400
C512        C  0.93217804  0.39725040  0.43914212    -0.08900
C513        C  0.88516774  0.39607908  0.36319920     0.65300
H514        H  0.87765193  0.45235467  0.39298774     0.10800
C515        C  0.93938220  0.43613640  0.48229491     0.63700
H516        H  0.94800418  0.38211584  0.45179941     0.08100
F517        F  0.87787875  0.27896131  0.39855214    -0.19300
F518        F  0.92146457  0.24991891  0.40087597    -0.15500
F519        F  0.90112836  0.26267849  0.35411759    -0.19000
F520        F  0.99231110  0.39659815  0.40761934    -0.22400
F521        F  0.96706180  0.41034279  0.36369425    -0.23900
F522        F  0.01102645  0.38178862  0.36072888    -0.17900
F523        F  0.93416468  0.41260076  0.50394776    -0.20400
F524        F  0.92670356  0.46338481  0.49447924    -0.21500
F525        F  0.97138490  0.44006743  0.47812953    -0.18700
F526        F  0.86610695  0.41888363  0.35050032    -0.18800
F527        F  0.86713078  0.36965421  0.36813284    -0.22600
F528        F  0.90867647  0.38929567  0.34158440    -0.24200
C529        C  0.72699810  0.54022026  0.32156696    -0.11000
C530        C  0.74011486  0.51439094  0.33677333     0.11500
C531        C  0.72209934  0.48682324  0.34034490    -0.02900
C532        C  0.69305708  0.48483404  0.32510878    -0.05600
C533        C  0.68049836  0.51007533  0.30830405    -0.16400
C534        C  0.69726439  0.53871124  0.30766807     0.02600
C535        C  0.77186031  0.51777528  0.35058775     0.12500
C536        C  0.73369129  0.45949990  0.35974378     0.63100
H537        H  0.68131169  0.46252249  0.32391616     0.12500
C538        C  0.68592607  0.56751933  0.29057008     0.55300
H539        H  0.74042948  0.56170385  0.32005563     0.08300
C540        C  0.80020834  0.51359800  0.33321251    -0.05500
C541        C  0.82924893  0.51886351  0.34816768    -0.06200
C542        C  0.83047928  0.52851553  0.37961207    -0.15800
C543        C  0.80165260  0.53136413  0.39713577    -0.01400
C544        C  0.77308924  0.52643816  0.38195689    -0.08900
C545        C  0.79957673  0.50415375  0.29895975     0.65300
H546        H  0.85111315  0.51642193  0.33515656     0.10800
C547        C  0.80021402  0.53926796  0.43196724     0.63700
H548        H  0.75103968  0.52972834  0.39448633     0.08100
F549        F  0.70498251  0.57269740  0.26461787    -0.19300
F550        F  0.68764723  0.59312886  0.31025412    -0.15500
F551        F  0.65523034  0.56489383  0.28088232    -0.19000
F552        F  0.73601293  0.46855684  0.39069704    -0.22400
F553        F  0.76283849  0.44972697  0.34902624    -0.23900
F554        F  0.71341483  0.43426810  0.35851495    -0.17900
F555        F  0.80731114  0.57045814  0.43646330    -0.20400
F556        F  0.82099420  0.52073741  0.44822118    -0.21500
F557        F  0.77063016  0.53410995  0.44480974    -0.18700
F558        F  0.82953519  0.50050289  0.28650334    -0.18800
F559        F  0.78434062  0.52681544  0.28181452    -0.22600
F560        F  0.78384533  0.47612759  0.29572531    -0.24200
C561        C  0.77302003  0.43078419  0.13551524    -0.11000
C562        C  0.76900991  0.45306750  0.15906094     0.11500
C563        C  0.79510271  0.47079639  0.16905391    -0.02900
C564        C  0.82376976  0.46811949  0.15230733    -0.05600
C565        C  0.82715355  0.44772919  0.12662732    -0.16400
C566        C  0.80177929  0.42718977  0.11944245     0.02600
C567        C  0.73712762  0.45675543  0.17306098     0.12500
C568        C  0.79270168  0.49195817  0.19755220     0.63100
H569        H  0.84354591  0.48242826  0.15886016     0.12500
C570        C  0.80422534  0.40166807  0.09475343     0.55300
H571        H  0.75295500  0.41665523  0.12924807     0.08300
C572        C  0.71504056  0.47835312  0.16117444    -0.05500
C573        C  0.68653398  0.48297577  0.17777852    -0.06200
C574        C  0.67933869  0.46572714  0.20487000    -0.15800
C575        C  0.69959811  0.44089752  0.21367002    -0.01400
C576        C  0.72857583  0.43741287  0.19810235    -0.08900
C577        C  0.72189727  0.49660449  0.13138889     0.65300
H578        H  0.67086489  0.50161300  0.17105761     0.10800
C579        C  0.69283295  0.41947555  0.24125623     0.63700
H580        H  0.74506324  0.41990320  0.20607537     0.08100
F581        F  0.80274148  0.41492135  0.06530849    -0.19300
F582        F  0.77995194  0.38027494  0.09751591    -0.15500
F583        F  0.83207292  0.38532710  0.09783883    -0.19000
F584        F  0.78523819  0.47425367  0.22367286    -0.22400
F585        F  0.76961611  0.51421698  0.19344754    -0.23900
F586        F  0.82068036  0.50732404  0.20313018    -0.17900
F587        F  0.69815845  0.38879964  0.23244372    -0.20400
F588        F  0.66207335  0.42166492  0.25184879    -0.21500
F589        F  0.71265879  0.42690501  0.26555161    -0.18700
F590        F  0.69744726  0.51647436  0.12397685    -0.18800
F591        F  0.72627330  0.47602979  0.10674106    -0.22600
F592        F  0.74874046  0.51436618  0.13466627    -0.24200
C593        C  0.14218286  0.59556494  0.44284421    -0.11000
C594        C  0.11490154  0.60014857  0.46117310     0.11500
C595        C  0.11632681  0.62054095  0.48735723    -0.02900
C596        C  0.14495013  0.63564683  0.49410583    -0.05600
C597        C  0.17205747  0.63179123  0.47533710    -0.16400
C598        C  0.17056037  0.61153896  0.44901325     0.02600
C599        C  0.08503672  0.58375639  0.45224859     0.12500
C600        C  0.08754707  0.62688162  0.50783480     0.63100
H601        H  0.14620339  0.65095953  0.51408202     0.12500
C602        C  0.19841975  0.60769233  0.42677689     0.55300
H603        H  0.14087758  0.57964854  0.42320360     0.08300
C604        C  0.06615774  0.59409265  0.42710712    -0.05500
C605        C  0.03705063  0.57923091  0.42182131    -0.06200
C606        C  0.02535703  0.55571434  0.44177941    -0.15800
C607        C  0.04460480  0.54479167  0.46630362    -0.01400
C608        C  0.07461493  0.55826472  0.47038224    -0.08900
C609        C  0.07580770  0.62187857  0.40703165     0.65300
H610        H  0.02200151  0.58763467  0.40340573     0.10800
C611        C  0.03303882  0.51972100  0.48872006     0.63700
H612        H  0.08947404  0.55021201  0.48909934     0.08100
F613        F  0.19105781  0.58946916  0.40111052    -0.19300
F614        F  0.22298639  0.59347459  0.44203454    -0.15500
F615        F  0.20802475  0.63663873  0.41591777    -0.19000
F616        F  0.07826492  0.59979526  0.52289503    -0.22400
F617        F  0.06320209  0.63763167  0.48964698    -0.23900
F618        F  0.09340211  0.64918208  0.53051611    -0.17900
F619        F  0.05698063  0.50857707  0.50727401    -0.20400
F620        F  0.02099497  0.49484415  0.47205480    -0.21500
F621        F  0.00982105  0.53181939  0.50816162    -0.18700
F622        F  0.05336586  0.62907979  0.38499520    -0.18800
F623        F  0.10357569  0.61542162  0.39123039    -0.22600
F624        F  0.07993077  0.64788558  0.42575604    -0.24200
C625        C  0.14566585  0.75015116  0.49074445    -0.11000
C626        C  0.14324012  0.76025725  0.45973085     0.11500
C627        C  0.15381419  0.74071747  0.43499527    -0.02900
C628        C  0.16762189  0.71179727  0.44244518    -0.05600
C629        C  0.17268859  0.70307787  0.47364875    -0.16400
C630        C  0.16057273  0.72206023  0.49829151     0.02600
C631        C  0.12976451  0.79171860  0.45442790     0.12500
C632        C  0.15302223  0.75148236  0.40117180     0.63100
H633        H  0.17810461  0.69761818  0.42406038     0.12500
C634        C  0.16489445  0.71531874  0.53294613     0.55300
H635        H  0.13725475  0.76527408  0.50945365     0.08300
C636        C  0.09705493  0.79662394  0.45612066    -0.05500
C637        C  0.08572504  0.82721967  0.45359798    -0.06200
C638        C  0.10576968  0.85309293  0.44884738    -0.15800
C639        C  0.13860386  0.84810069  0.44673549    -0.01400
C640        C  0.15011763  0.81729365  0.45001813    -0.08900
C641        C  0.07416662  0.76960269  0.46052726     0.65300
H642        H  0.06064959  0.83115932  0.45547600     0.10800
C643        C  0.16116297  0.87475366  0.44019829     0.63700
H644        H  0.17516112  0.81287318  0.44930847     0.08100
F645        F  0.13568607  0.71281000  0.54728583    -0.19300
F646        F  0.18099634  0.73978412  0.54652624    -0.15500
F647        F  0.18132346  0.68814238  0.53874060    -0.19000
F648        F  0.17377856  0.77599276  0.39698051    -0.22400
F649        F  0.12318383  0.76133868  0.39355926    -0.23900
F650        F  0.16153313  0.72777219  0.38067787    -0.17900
F651        F  0.16084056  0.89531059  0.46513798    -0.20400
F652        F  0.15237354  0.89036451  0.41334413    -0.21500
F653        F  0.19166211  0.86422637  0.43583710    -0.18700
F654        F  0.04321915  0.77933928  0.45902771    -0.18800
F655        F  0.07845765  0.75580521  0.48939840    -0.22600
F656        F  0.07900955  0.74748127  0.43736341    -0.24200
C657        C  0.05032184  0.90721056  0.10853564    -0.11000
C658        C  0.03012123  0.89073532  0.08892970     0.11500
C659        C  0.01907264  0.90557037  0.06140111    -0.02900
C660        C  0.02806495  0.93692501  0.05508027    -0.05600
C661        C  0.04736942  0.95374589  0.07554565    -0.16400
C662        C  0.05944258  0.93819607  0.10225765     0.02600
C663        C  0.01929238  0.85917189  0.09999744     0.12500
C664        C  0.99748057  0.88855768  0.03916259     0.63100
H665        H  0.01878315  0.94904501  0.03496871     0.12500
C666        C  0.08168249  0.95431877  0.12454663     0.55300
H667        H  0.05813399  0.89576229  0.12966755     0.08300
C668        C  0.03915365  0.83251351  0.09947809    -0.05500
C669        C  0.02936389  0.80515662  0.11541398    -0.06200
C670        C  0.00077333  0.80374861  0.13222132    -0.15800
C671        C  0.97974124  0.82939652  0.13023145    -0.01400
C672        C  0.98986800  0.85698541  0.11512733    -0.08900
C673        C  0.07094226  0.83319851  0.08292764     0.65300
H674        H  0.04484248  0.78510139  0.11636815     0.10800
C675        C  0.94621852  0.82884387  0.14266698     0.63700
H676        H  0.97463413  0.87728996  0.11544454     0.08100
F677        F  0.09397829  0.93376689  0.14621586    -0.19300
F678        F  0.06590050  0.97746385  0.14083509    -0.15500
F679        F  0.10650081  0.96720430  0.10784934    -0.19000
F680        F  0.96961382  0.88106603  0.05429973    -0.22400
F681        F  0.01172385  0.86141242  0.02868626    -0.23900
F682        F  0.99043743  0.90661527  0.01330096    -0.17900
F683        F  0.94287851  0.85063165  0.16639170    -0.20400
F684        F  0.93713904  0.79989489  0.15385841    -0.21500
F685        F  0.92611147  0.83669562  0.11874129    -0.18700
F686        F  0.08536678  0.80420323  0.08314528    -0.18800
F687        F  0.09058220  0.85416181  0.09753845    -0.22600
F688        F  0.06736260  0.84208818  0.05208360    -0.24200
C689        C  0.91711878  0.58661185  0.12126249    -0.11000
C690        C  0.93637428  0.60436724  0.10126103     0.11500
C691        C  0.94474490  0.59224623  0.07133749    -0.02900
C692        C  0.93457012  0.56192430  0.06309745    -0.05600
C693        C  0.91620158  0.54378314  0.08367981    -0.16400
C694        C  0.90664608  0.55662783  0.11288567     0.02600
C695        C  0.94857961  0.63475173  0.11333021     0.12500
C696        C  0.96506522  0.61086774  0.04863915     0.63100
H697        H  0.94226575  0.55149330  0.04118602     0.12500
C698        C  0.88648621  0.53810171  0.13570608     0.55300
H699        H  0.91127836  0.59605685  0.14414496     0.08300
C700        C  0.92965931  0.66192887  0.11518290    -0.05500
C701        C  0.94231606  0.68928014  0.12842911    -0.06200
C702        C  0.97265951  0.69002191  0.14094711    -0.15800
C703        C  0.99202701  0.66311189  0.13794747    -0.01400
C704        C  0.97928337  0.63574623  0.12485943    -0.08900
C705        C  0.89596298  0.66179813  0.10399120     0.65300
H706        H  0.92808337  0.71020920  0.13019906     0.10800
C707        C  0.02634071  0.66193293  0.14700872     0.63700
H708        H  0.99360870  0.61481622  0.12345994     0.08100
F709        F  0.87712906  0.55584963  0.16129448    -0.19300
F710        F  0.90326820  0.51276762  0.14655341    -0.15500
F711        F  0.85979702  0.52784012  0.12076296    -0.19000
F712        F  0.99478442  0.61455998  0.06068857    -0.22400
F713        F  0.95192262  0.63997159  0.04377700    -0.23900
F714        F  0.96796716  0.59612444  0.01987590    -0.17900
F715        F  0.03000656  0.64075013  0.17113166    -0.20400
F716        F  0.03802068  0.69053717  0.15625339    -0.21500
F717        F  0.04413077  0.65199489  0.12154119    -0.18700
F718        F  0.88266658  0.69129664  0.10524657    -0.18800
F719        F  0.87800509  0.64222812  0.12270379    -0.22600
F720        F  0.89485445  0.65144749  0.07336417    -0.24200
C721        C  0.94713941  0.67624076  0.25676638    -0.11000
C722        C  0.97384270  0.66294592  0.27020354     0.11500
C723        C  0.00309743  0.66488376  0.25415418    -0.02900
C724        C  0.00484395  0.68175634  0.22588013    -0.05600
C725        C  0.97835494  0.69604745  0.21279187    -0.16400
C726        C  0.94890440  0.69332455  0.22859899     0.02600
C727        C  0.96999584  0.64583588  0.30038646     0.12500
C728        C  0.03249320  0.64983281  0.26718204     0.63100
H729        H  0.02744967  0.68553380  0.21467849     0.12500
C730        C  0.91952705  0.70901452  0.21633431     0.55300
H731        H  0.92484276  0.67352065  0.26896209     0.08300
C732        C  0.96587691  0.66113523  0.32968420    -0.05500
C733        C  0.96043666  0.64289787  0.35677617    -0.06200
C734        C  0.95870668  0.61020486  0.35521101    -0.15800
C735        C  0.96472525  0.59499715  0.32605168    -0.01400
C736        C  0.96951419  0.61323503  0.29912489    -0.08900
C737        C  0.96649814  0.69650129  0.33224634     0.65300
H738        H  0.95604807  0.65410106  0.37912407     0.10800
C739        C  0.96652267  0.55961924  0.32293465     0.63700
H740        H  0.97231390  0.60207465  0.27649497     0.08100
F741        F  0.89418134  0.70543480  0.23667002    -0.19300
F742        F  0.91166276  0.69577886  0.18807350    -0.15500
F743        F  0.92443474  0.74068663  0.21227343    -0.19000
F744        F  0.02959806  0.61769043  0.26632996    -0.22400
F745        F  0.03686558  0.65926422  0.29778900    -0.23900
F746        F  0.05908699  0.65786133  0.25001092    -0.17900
F747        F  0.93671154  0.54688504  0.32432810    -0.20400
F748        F  0.98455744  0.54730852  0.34663156    -0.21500
F749        F  0.98024463  0.55072584  0.29471488    -0.18700
F750        F  0.96497688  0.70635047  0.36312990    -0.18800
F751        F  0.94113082  0.70906755  0.31681893    -0.22600
F752        F  0.99395521  0.70799127  0.31901899    -0.24200
C753        C  0.02855509  0.83384632  0.24433862    -0.11000
C754        C  0.00076822  0.84025638  0.26114915     0.11500
C755        C  0.97148432  0.83202797  0.24836463    -0.02900
C756        C  0.97121315  0.81518225  0.22017018    -0.05600
C757        C  0.99908623  0.80627699  0.20452386    -0.16400
C758        C  0.02828930  0.81659958  0.21623237     0.02600
C759        C  0.00300314  0.85587337  0.29205028     0.12500
C760        C  0.94073648  0.83983022  0.26511770     0.63100
H761        H  0.94918795  0.80614611  0.21167128     0.12500
C762        C  0.05901996  0.80887550  0.19957891     0.55300
H763        H  0.05057745  0.84158438  0.25407622     0.08300
C764        C  0.01010511  0.83937128  0.31986838    -0.05500
C765        C  0.01258789  0.85620572  0.34815750    -0.06200
C766        C  0.00847214  0.88873468  0.34905834    -0.15800
C767        C  0.99971330  0.90481193  0.32129406    -0.01400
C768        C  0.99773351  0.88803373  0.29319814    -0.08900
C769        C  0.01585984  0.80434451  0.31940152     0.65300
H770        H  0.01928080  0.84432515  0.36944065     0.10800
C771        C  0.99228720  0.93959388  0.32089714     0.63700
H772        H  0.99240494  0.90005519  0.27158217     0.08100
F773        F  0.08470972  0.81879988  0.21642667    -0.19300
F774        F  0.05991904  0.82378645  0.17095655    -0.15500
F775        F  0.06185625  0.77699974  0.19506468    -0.19000
F776        F  0.94071873  0.82785838  0.29517786    -0.22400
F777        F  0.91511217  0.82752820  0.24978554    -0.23900
F778        F  0.93698191  0.87186643  0.26660908    -0.17900
F779        F  0.01977916  0.95672417  0.32163719    -0.20400
F780        F  0.97347063  0.94737872  0.34638935    -0.21500
F781        F  0.97633298  0.94801775  0.29414672    -0.18700
F782        F  0.02024096  0.79256868  0.34921233    -0.18800
F783        F  0.04243504  0.79779924  0.30164421    -0.22600
F784        F  0.99047967  0.78909182  0.30656785    -0.24200
C785        C  0.08595241  0.02180781  0.91352339    -0.11000
C786        C  0.07555295  0.04378230  0.89170070     0.11500
C787        C  0.05383981  0.06708045  0.90190893    -0.02900
C788        C  0.04715494  0.07017258  0.93437678    -0.05600
C789        C  0.05966093  0.04947113  0.95658067    -0.16400
C790        C  0.07750139  0.02342397  0.94543954     0.02600
C791        C  0.08771661  0.04000575  0.85874226     0.12500
C792        C  0.03633461  0.08849793  0.87987573     0.63100
H793        H  0.03239035  0.08927379  0.94242695     0.12500
C794        C  0.08683281  0.99650699  0.96661856     0.55300
H795        H  0.10125294  0.00320841  0.90528390     0.08300
C796        C  0.11229540  0.05871316  0.84610875    -0.05500
C797        C  0.12525720  0.05101961  0.81644023    -0.06200
C798        C  0.11650452  0.02384441  0.80015195    -0.15800
C799        C  0.09222488  0.00474904  0.81322381    -0.01400
C800        C  0.07787213  0.01372049  0.84186152    -0.08900
C801        C  0.12609280  0.08556526  0.86465587     0.65300
H802        H  0.14344011  0.06560111  0.80626936     0.10800
C803        C  0.08241842  0.97397254  0.79836271     0.63700
H804        H  0.05953737  0.99936890  0.85218950     0.08100
F805        F  0.11186078  0.00495444  0.98506494    -0.19300
F806        F  0.09575703  0.97041799  0.94947826    -0.15500
F807        F  0.06153276  0.98798454  0.98536561    -0.19000
F808        F  0.00439414  0.08406503  0.88418821    -0.22400
F809        F  0.04345103  0.08300298  0.84868668    -0.23900
F810        F  0.04334555  0.11928160  0.88669264    -0.17900
F811        F  0.06439385  0.95607275  0.81873108    -0.20400
F812        F  0.10854146  0.95646608  0.79004415    -0.21500
F813        F  0.06464448  0.97964697  0.77216466    -0.18700
F814        F  0.15142293  0.09912653  0.84920820    -0.18800
F815        F  0.13635417  0.07482927  0.89329746    -0.22600
F816        F  0.10367716  0.10839323  0.86952350    -0.24200
C817        C  0.10213056  0.93619261  0.58251760    -0.11000
C818        C  0.07975096  0.94942706  0.60289150     0.11500
C819        C  0.04876835  0.95444614  0.59205241    -0.02900
C820        C  0.04172843  0.94719588  0.56055024    -0.05600
C821        C  0.06462170  0.93510059  0.53989890    -0.16400
C822        C  0.09506400  0.92865708  0.55132999     0.02600
C823        C  0.09085952  0.96036404  0.63416612     0.12500
C824        C  0.02358098  0.96828515  0.61334559     0.63100
H825        H  0.01874004  0.95245159  0.55135795     0.12500
C826        C  0.12042051  0.91487066  0.53026370     0.55300
H827        H  0.12577975  0.93297910  0.59098211     0.08300
C828        C  0.09820718  0.93943671  0.65874954    -0.05500
C829        C  0.11274259  0.95120339  0.68585282    -0.06200
C830        C  0.12040351  0.98296862  0.68904063    -0.15800
C831        C  0.11255680  0.00399386  0.66460883    -0.01400
C832        C  0.09786246  0.99220848  0.63769659    -0.08900
C833        C  0.09087763  0.90480596  0.65631389     0.65300
H834        H  0.11886427  0.93550126  0.70469090     0.10800
C835        C  0.11988813  0.03872980  0.66482597     0.63700
H836        H  0.09282229  0.00799430  0.61855281     0.08100
F837        F  0.14749126  0.90804065  0.54651014    -0.19300
F838        F  0.12809134  0.93593123  0.50686975    -0.15500
F839        F  0.10965023  0.88741818  0.51715200    -0.19000
F840        F  0.03108493  0.99881420  0.62062157    -0.22400
F841        F  0.02124281  0.95113097  0.64068534    -0.23900
F842        F  0.99444921  0.96817589  0.59933609    -0.17900
F843        F  0.13736948  0.04619699  0.63831985    -0.20400
F844        F  0.13665308  0.04822954  0.69058785    -0.21500
F845        F  0.09203899  0.05534404  0.66431531    -0.18700
F846        F  0.09753453  0.88910136  0.68377001    -0.18800
F847        F  0.10853911  0.89143237  0.63246828    -0.22600
F848        F  0.05937581  0.90066225  0.65016658    -0.24200
C849        C  0.82292115  0.09973998  0.04819185    -0.11000
C850        C  0.85021892  0.10353728  0.02989846     0.11500
C851        C  0.84862666  0.12139546  0.00198492    -0.02900
C852        C  0.82008093  0.13628041  0.99433316    -0.05600
C853        C  0.79322959  0.13419911  0.01375850    -0.16400
C854        C  0.79467428  0.11536904  0.04124268     0.02600
C855        C  0.88072255  0.09114658  0.04203535     0.12500
C856        C  0.87711032  0.12484559  0.98051224     0.63100
H857        H  0.81863025  0.15022262  0.97326557     0.12500
C858        C  0.76820344  0.11207900  0.06524094     0.55300
H859        H  0.82423104  0.08577563  0.06931095     0.08300
C860        C  0.89827251  0.10812672  0.06431984    -0.05500
C861        C  0.92843700  0.09740177  0.07218061    -0.06200
C862        C  0.94171608  0.07037403  0.05874329    -0.15800
C863        C  0.92340212  0.05219137  0.03821606    -0.01400
C864        C  0.89293914  0.06278051  0.03033821    -0.08900
C865        C  0.88563055  0.13805584  0.07903330     0.65300
H866        H  0.94272234  0.11099359  0.08795157     0.10800
C867        C  0.93675248  0.02274022  0.02359303     0.63700
H868        H  0.87896192  0.04970473  0.01389332     0.08100
F869        F  0.77938823  0.11900628  0.09471744    -0.19300
F870        F  0.75763013  0.08154410  0.06523155    -0.15500
F871        F  0.74311426  0.13165905  0.05993709    -0.19000
F872        F  0.88618576  0.09579409  0.96949056    -0.22400
F873        F  0.90170210  0.13806636  0.99664280    -0.23900
F874        F  0.87087306  0.14362191  0.95494920    -0.17900
F875        F  0.91490925  0.00761284  0.00528510    -0.20400
F876        F  0.94597125  0.00241717  0.04690356    -0.21500
F877        F  0.96249155  0.03015044  0.00494386    -0.18700
F878        F  0.90688299  0.15136690  0.09934324    -0.18800
F879        F  0.85844560  0.13172052  0.09588459    -0.22600
F880        F  0.87914669  0.15972475  0.05600431    -0.24200
C881        C  0.86847101  0.29954233  0.00865502    -0.11000
C882        C  0.83600677  0.29666551  0.01206021     0.11500
C883        C  0.81744100  0.32357016  0.01823018    -0.02900
C884        C  0.83255611  0.35270415  0.02186972    -0.05600
C885        C  0.86539435  0.35518725  0.02053718    -0.16400
C886        C  0.88360150  0.32833631  0.01228228     0.02600
C887        C  0.82259429  0.26471991  0.01042502     0.12500
C888        C  0.78205914  0.32118164  0.02242811     0.63100
H889        H  0.81900481  0.37324214  0.02778329     0.12500
C890        C  0.91911783  0.32934897  0.00791083     0.55300
H891        H  0.88212515  0.27860626  0.00415243     0.08300
C892        C  0.81741148  0.24946506  0.98154832    -0.05500
C893        C  0.80302172  0.21992472  0.98195991    -0.06200
C894        C  0.79299357  0.20583027  0.01008121    -0.15800
C895        C  0.80096683  0.21980036  0.03893168    -0.01400
C896        C  0.81605285  0.24903144  0.03857788    -0.08900
C897        C  0.82566543  0.26496989  0.95051374     0.65300
H898        H  0.79641250  0.20896378  0.96004922     0.10800
C899        C  0.79297370  0.20409241  0.06979558     0.63700
H900        H  0.82181330  0.26056878  0.06043967     0.08100
F901        F  0.92781495  0.35572681  0.99128633    -0.19300
F902        F  0.93007202  0.30366259  0.99131184    -0.15500
F903        F  0.93353887  0.32937597  0.03672678    -0.19000
F904        F  0.77504977  0.30408552  0.04906734    -0.22400
F905        F  0.76905418  0.30652901  0.99683075    -0.23900
F906        F  0.76820357  0.35030944  0.02552855    -0.17900
F907        F  0.80805817  0.17559464  0.07102841    -0.20400
F908        F  0.76091914  0.19957352  0.07263009    -0.21500
F909        F  0.80262611  0.22166936  0.09512124    -0.18700
F910        F  0.81663319  0.24695901  0.92525237    -0.18800
F911        F  0.85774294  0.26946084  0.94824577    -0.22600
F912        F  0.81072601  0.29356234  0.94839186    -0.24200
C913        C  0.38157778  0.02460799  0.15401822    -0.11000
C914        C  0.37362142  0.05413385  0.14231139     0.11500
C915        C  0.35197595  0.07287276  0.15941080    -0.02900
C916        C  0.33983484  0.06162074  0.18820959    -0.05600
C917        C  0.34626448  0.03121473  0.19903595    -0.16400
C918        C  0.36731350  0.01218254  0.18124513     0.02600
C919        C  0.38326727  0.06116660  0.10925603     0.12500
C920        C  0.34064836  0.10389954  0.14658376     0.63100
H921        H  0.32418838  0.07618184  0.20203160     0.12500
C922        C  0.37429953  0.97833404  0.18916795     0.55300
H923        H  0.39766619  0.01027233  0.14034836     0.08300
C924        C  0.40942193  0.07979551  0.09999845    -0.05500
C925        C  0.41720734  0.08230528  0.06771703    -0.06200
C926        C  0.40091816  0.06550662  0.04470686    -0.15800
C927        C  0.37460939  0.04682595  0.05436733    -0.01400
C928        C  0.36632004  0.04553033  0.08628230    -0.08900
C929        C  0.43035148  0.09682037  0.12282769     0.65300
H930        H  0.43700319  0.09665571  0.06056127     0.10800
C931        C  0.35480606  0.02793536  0.03163472     0.63700
H932        H  0.34671944  0.03120705  0.09398044     0.08100
F933        F  0.40082927  0.97710811  0.20737496    -0.19300
F934        F  0.37985994  0.96115569  0.16216331    -0.15500
F935        F  0.34949161  0.96417516  0.20477328    -0.19000
F936        F  0.32613148  0.09917964  0.11820303    -0.22400
F937        F  0.36574991  0.12391152  0.14224233    -0.23900
F938        F  0.31927303  0.11823407  0.16666138    -0.17900
F939        F  0.37232257  0.00342975  0.01947765    -0.20400
F940        F  0.34444214  0.04684986  0.00766218    -0.21500
F941        F  0.32846448  0.01513605  0.04602325    -0.18700
F942        F  0.42896442  0.12857093  0.11697096    -0.18800
F943        F  0.46101123  0.08685811  0.11853901    -0.22600
F944        F  0.42200663  0.09180151  0.15379673    -0.24200
C945        C  0.22997054  0.00270405  0.83465513    -0.11000
C946        C  0.24826022  0.02910963  0.82756980     0.11500
C947        C  0.23612387  0.05236993  0.80746723    -0.02900
C948        C  0.20677056  0.04731795  0.79359187    -0.05600
C949        C  0.18932271  0.01996872  0.79917339    -0.16400
C950        C  0.20035753  0.99799338  0.82119847     0.02600
C951        C  0.27874599  0.03290541  0.84383300     0.12500
C952        C  0.25431712  0.08204959  0.80013025     0.63100
H953        H  0.19835703  0.06349434  0.77608954     0.12500
C954        C  0.18098861  0.96957497  0.83013415     0.58500
H955        H  0.23935297  0.98553954  0.85062497     0.08300
C956        C  0.27945022  0.03956114  0.87618423    -0.05500
C957        C  0.30859356  0.04185980  0.89067019    -0.06200
C958        C  0.33733454  0.04005997  0.87390841    -0.15800
C959        C  0.33672774  0.03439894  0.84122777    -0.01400
C960        C  0.30725425  0.02983650  0.82689598    -0.08900
C961        C  0.24968153  0.04398322  0.89586310     0.65300
H962        H  0.30890089  0.04540550  0.91577215     0.10800
C963        C  0.36657717  0.03467159  0.82143655     0.63700
H964        H  0.30619019  0.02432703  0.80219346     0.08100
F965        F  0.15239746  0.97919442  0.84239371    -0.19300
F966        F  0.19565984  0.95152420  0.85251061    -0.15500
F967        F  0.17595474  0.95107063  0.80420923    -0.19000
F968        F  0.28152029  0.07487381  0.78364216    -0.22400
F969        F  0.26198762  0.09711169  0.82763546    -0.23900
F970        F  0.23702955  0.10257355  0.78217137    -0.17900
F971        F  0.38577418  0.01011831  0.82982672    -0.20400
F972        F  0.38235818  0.06255049  0.82582840    -0.21500
F973        F  0.36029825  0.03183149  0.78984157    -0.18700
F974        F  0.25584248  0.05930042  0.92368310    -0.18800
F975        F  0.23683567  0.01516446  0.90296856    -0.22600
F976        F  0.22786771  0.06171662  0.88001997    -0.24200
C977        C  0.29965124  0.25509643  0.94424069    -0.11000
C978        C  0.30697406  0.23979524  0.97229493     0.11500
C979        C  0.29915065  0.25394993  0.00132819    -0.02900
C980        C  0.28185688  0.28186239  0.00118553    -0.05600
C981        C  0.27212470  0.29581490  0.97317251    -0.16400
C982        C  0.28198111  0.28293646  0.94418874     0.02600
C983        C  0.32334571  0.20918763  0.97058937     0.12500
C984        C  0.30787408  0.23903172  0.03231788     0.63100
H985        H  0.27360967  0.29187257  0.02310919     0.12500
C986        C  0.27361408  0.29845301  0.91354811     0.55300
H987        H  0.30711897  0.24448568  0.92235088     0.08300
C988        C  0.30744167  0.18081795  0.96422825    -0.05500
C989        C  0.32498891  0.15285418  0.96220584    -0.06200
C990        C  0.35760412  0.15273145  0.96646517    -0.15800
C991        C  0.37300814  0.18105389  0.97481312    -0.01400
C992        C  0.35561247  0.20886364  0.97580176    -0.08900
C993        C  0.27225374  0.18030392  0.95901351     0.65300
H994        H  0.31358906  0.13114002  0.95603088     0.10800
C995        C  0.40751359  0.18221453  0.98362203     0.63700
H996        H  0.36717464  0.23086242  0.98058928     0.08100
F997        F  0.28439346  0.28148795  0.88797230    -0.19300
F998        F  0.28726282  0.32770481  0.91230984    -0.15500
F999        F  0.24139003  0.30140077  0.91123518    -0.19000
F1000       F  0.34015479  0.23814314  0.03503532    -0.22400
F1001       F  0.29618928  0.20894182  0.03393345    -0.23900
F1002       F  0.29586200  0.25557790  0.05764654    -0.17900
F1003       F  0.42638683  0.17902149  0.95725315    -0.20400
F1004       F  0.41407312  0.15859441  0.00461007    -0.21500
F1005       F  0.41517107  0.21026740  0.99778620    -0.18700
F1006       F  0.26107162  0.15014589  0.95562170    -0.18800
F1007       F  0.26528149  0.19678709  0.93216697    -0.22600
F1008       F  0.25669885  0.19381035  0.98423292    -0.24200
C1009       C  0.56565882  0.11979550  0.96217600    -0.11000
C1010       C  0.58991442  0.10165955  0.94958798     0.11500
C1011       C  0.58254882  0.07345051  0.93388055    -0.02900
C1012       C  0.55057348  0.06491060  0.93048049    -0.05600
C1013       C  0.52608257  0.08283920  0.94378484    -0.16400
C1014       C  0.53395794  0.11114784  0.95992319     0.02600
C1015       C  0.62259608  0.11217450  0.95641883     0.12500
C1016       C  0.60840846  0.05201546  0.92191647     0.63100
H1017       H  0.54452390  0.04353459  0.91841737     0.12500
C1018       C  0.50962094  0.13293214  0.97488150     0.55300
H1019       H  0.57212794  0.14080090  0.97469435     0.08300
C1020       C  0.63815420  0.13545874  0.93846232    -0.05500
C1021       C  0.66732849  0.14693590  0.94875708    -0.06200
C1022       C  0.67996472  0.13838597  0.97783109    -0.15800
C1023       C  0.66328700  0.11633233  0.99661224    -0.01400
C1024       C  0.63548313  0.10291971  0.98500318    -0.08900
C1025       C  0.62305812  0.14966024  0.90972266     0.65300
H1026       H  0.67979848  0.16393279  0.93470409     0.10800
C1027       C  0.67335318  0.10836602  0.02962968     0.63700
H1028       H  0.62248555  0.08612827  0.99902502     0.08100
F1029       F  0.52288451  0.16038662  0.98566123    -0.19300
F1030       F  0.49524139  0.11854033  0.00023901    -0.15500
F1031       F  0.48741606  0.14127295  0.95328566    -0.19000
F1032       F  0.62626251  0.04195541  0.94675915    -0.22400
F1033       F  0.62758800  0.06771077  0.90087309    -0.23900
F1034       F  0.59643733  0.02598759  0.90698686    -0.17900
F1035       F  0.65075361  0.09109042  0.04552823    -0.20400
F1036       F  0.67825297  0.13552050  0.04643525    -0.21500
F1037       F  0.70058100  0.09089389  0.02869203    -0.18700
F1038       F  0.64256184  0.17119500  0.89509136    -0.18800
F1039       F  0.59565389  0.16487999  0.91842988    -0.22600
F1040       F  0.61605002  0.12665086  0.88826210    -0.24200
C1041       C  0.49401883  0.16604399  0.74497484    -0.11000
C1042       C  0.46477823  0.16292048  0.76011805     0.11500
C1043       C  0.43737035  0.17339660  0.74483820    -0.02900
C1044       C  0.44070766  0.19017417  0.71665763    -0.05600
C1045       C  0.47023362  0.19508455  0.70246832    -0.16400
C1046       C  0.49701837  0.18094809  0.71573914     0.02600
C1047       C  0.46362238  0.14944028  0.79227964     0.12500
C1048       C  0.40481968  0.16795584  0.75872325     0.63100
H1049       H  0.42051944  0.20203281  0.70713092     0.12500
C1050       C  0.52880648  0.18263013  0.69947120     0.55300
H1051       H  0.51475418  0.15780805  0.75682094     0.08300
C1052       C  0.46830415  0.11720263  0.79771758    -0.05500
C1053       C  0.46479705  0.10591739  0.82841487    -0.06200
C1054       C  0.45588386  0.12537277  0.85364229    -0.15800
C1055       C  0.45237007  0.15777596  0.84845790    -0.01400
C1056       C  0.45701371  0.16941175  0.81777662    -0.08900
C1057       C  0.47578958  0.09452558  0.77117909     0.65300
H1058       H  0.46778920  0.08117794  0.83283871     0.10800
C1059       C  0.44234097  0.17951784  0.87474050     0.63700
H1060       H  0.45439091  0.19415024  0.81317737     0.08100
F1061       F  0.52616328  0.17149675  0.66925515    -0.19300
F1062       F  0.55097129  0.16457230  0.71452172    -0.15500
F1063       F  0.53942428  0.21312794  0.69863658    -0.19000
F1064       F  0.40059980  0.18590714  0.78534156    -0.22400
F1065       F  0.40115250  0.13676136  0.76636050    -0.23900
F1066       F  0.38155342  0.17577040  0.73777608    -0.17900
F1067       F  0.43857677  0.20990931  0.86436212    -0.20400
F1068       F  0.46489383  0.17948918  0.89771201    -0.21500
F1069       F  0.41400348  0.16962489  0.88746228    -0.18700
F1070       F  0.47579598  0.06379951  0.78131109    -0.18800
F1071       F  0.50517642  0.10084243  0.75865267    -0.22600
F1072       F  0.45363733  0.09721137  0.74795588    -0.24200
C1073       C  0.42193308  0.96373817  0.40439181    -0.11000
C1074       C  0.39298674  0.95176069  0.39447935     0.11500
C1075       C  0.37740621  0.92910519  0.41333403    -0.02900
C1076       C  0.39023382  0.92110732  0.44262578    -0.05600
C1077       C  0.41749110  0.93554243  0.45390638    -0.16400
C1078       C  0.43417990  0.95643776  0.43410550     0.02600
C1079       C  0.37843749  0.96506142  0.36554048     0.12500
C1080       C  0.34660670  0.91456370  0.40317908     0.63100
H1081       H  0.37779416  0.90507943  0.45797091     0.12500
C1082       C  0.46454669  0.97128948  0.44470093     0.55300
H1083       H  0.43400514  0.98032023  0.38934326     0.08300
C1084       C  0.36373580  0.99483463  0.36554255    -0.05500
C1085       C  0.34995696  0.00585409  0.33775020    -0.06200
C1086       C  0.34928944  0.98779519  0.31027514    -0.15800
C1087       C  0.36309330  0.95754493  0.31067228    -0.01400
C1088       C  0.37829295  0.94717056  0.33800544    -0.08900
C1089       C  0.36206031  0.01470504  0.39500432     0.65300
H1090       H  0.33905901  0.02864745  0.33745137     0.10800
C1091       C  0.36108760  0.93584649  0.28271694     0.63700
H1092       H  0.38979767  0.92461068  0.33829166     0.08100
F1093       F  0.47925699  0.98762202  0.42068927    -0.19300
F1094       F  0.48488293  0.94829562  0.45479232    -0.15500
F1095       F  0.45854804  0.99185645  0.46902256    -0.19000
F1096       F  0.35132470  0.89747287  0.37607213    -0.22400
F1097       F  0.32463356  0.93768167  0.39774312    -0.23900
F1098       F  0.33434604  0.89457749  0.42565160    -0.17900
F1099       F  0.37903533  0.94764819  0.25840604    -0.20400
F1100       F  0.33023246  0.93306867  0.27338675    -0.21500
F1101       F  0.37211776  0.90620038  0.28947516    -0.18700
F1102       F  0.34354947  0.04096712  0.39100763    -0.18800
F1103       F  0.39184042  0.02447875  0.40289537    -0.22600
F1104       F  0.34929782  0.99756296  0.41949077    -0.24200
C1105       C  0.31378068  0.75205741  0.47773012    -0.11000
C1106       C  0.31294255  0.76719410  0.50683815     0.11500
C1107       C  0.29706974  0.75288673  0.53240880    -0.02900
C1108       C  0.28267607  0.72359709  0.52796894    -0.05600
C1109       C  0.28204893  0.70911716  0.49846237    -0.16400
C1110       C  0.29811242  0.72353188  0.47286073     0.02600
C1111       C  0.32959407  0.79762591  0.51036473     0.12500
C1112       C  0.29359921  0.76954560  0.56368115     0.63100
H1113       H  0.26905569  0.71324944  0.54684110     0.12500
C1114       C  0.29820913  0.71086650  0.43961643     0.55300
H1115       H  0.32598337  0.76319374  0.45828322     0.08300
C1116       C  0.36158001  0.79854392  0.51842377    -0.05500
C1117       C  0.37510264  0.82751774  0.52558467    -0.06200
C1118       C  0.35809709  0.85583974  0.52448892    -0.15800
C1119       C  0.32678660  0.85520749  0.51353247    -0.01400
C1120       C  0.31292135  0.82583909  0.50695107    -0.08900
C1121       C  0.38133105  0.76892347  0.51957157     0.65300
H1122       H  0.39948590  0.82813743  0.53239947     0.10800
C1123       C  0.30790051  0.88495900  0.50945123     0.63700
H1124       H  0.28866200  0.82453719  0.49979533     0.08100
F1125       F  0.28235609  0.68289297  0.43666883    -0.19300
F1126       F  0.32890913  0.70620910  0.42967594    -0.15500
F1127       F  0.28429014  0.73245923  0.42010285    -0.19000
F1128       F  0.27671777  0.79683131  0.55970384    -0.22400
F1129       F  0.32276911  0.77680114  0.57545039    -0.23900
F1130       F  0.27787915  0.75140133  0.58564936    -0.17900
F1131       F  0.27783898  0.87885885  0.49913399    -0.20400
F1132       F  0.32248951  0.90403358  0.48763581    -0.21500
F1133       F  0.30548856  0.90074216  0.53757462    -0.18700
F1134       F  0.41189905  0.77496555  0.52838461    -0.18800
F1135       F  0.38233964  0.75517482  0.49027671    -0.22600
F1136       F  0.36852479  0.74800728  0.54082107    -0.24200
C1137       C  0.29155944  0.93451112  0.64133419    -0.11000
C1138       C  0.28103775  0.96289446  0.65369556     0.11500
C1139       C  0.30245729  0.98815860  0.65654665    -0.02900
C1140       C  0.33213661  0.98575973  0.64155283    -0.05600
C1141       C  0.34151370  0.95797970  0.62668530    -0.16400
C1142       C  0.32208225  0.93109690  0.62941771     0.02600
C1143       C  0.24852764  0.96399002  0.66641873     0.12500
C1144       C  0.29458576  0.01669286  0.67638472     0.63100
H1145       H  0.34769886  0.00574707  0.64051217     0.12500
C1146       C  0.33246373  0.89811748  0.62117574     0.55300
H1147       H  0.27592309  0.91450668  0.64168886     0.08300
C1148       C  0.22403888  0.98049786  0.65159400    -0.05500
C1149       C  0.19589965  0.98567273  0.66860193    -0.06200
C1150       C  0.19042511  0.97089190  0.69752012    -0.15800
C1151       C  0.21193446  0.94768544  0.70748771    -0.01400
C1152       C  0.24157116  0.94621650  0.69308196    -0.08900
C1153       C  0.22681434  0.99031300  0.61751350     0.65300
H1154       H  0.17890218  0.00225719  0.66007116     0.10800
C1155       C  0.20515029  0.92549649  0.73435489     0.63700
H1156       H  0.25943109  0.93105578  0.70272479     0.08100
F1157       F  0.31463158  0.88688332  0.59687825    -0.19300
F1158       F  0.32777122  0.87902151  0.64694944    -0.15500
F1159       F  0.36380141  0.89614260  0.61285050    -0.19000
F1160       F  0.28722566  0.00732797  0.70658908    -0.22400
F1161       F  0.26929057  0.03267776  0.66441960    -0.23900
F1162       F  0.31967377  0.03719003  0.67777392    -0.17900
F1163       F  0.21159472  0.89522976  0.72483980    -0.20400
F1164       F  0.17401875  0.92662155  0.74395989    -0.21500
F1165       F  0.22410638  0.93275772  0.75937345    -0.18700
F1166       F  0.20011324  0.00576377  0.60775088    -0.18800
F1167       F  0.23064200  0.96386440  0.59923273    -0.22600
F1168       F  0.25226124  0.00970040  0.61248638    -0.24200
C1169       C  0.45187122  0.08329677  0.60864359    -0.11000
C1170       C  0.43876768  0.10688120  0.59040480     0.11500
C1171       C  0.42344397  0.09862619  0.56228555    -0.02900
C1172       C  0.41935140  0.06650534  0.55493951    -0.05600
C1173       C  0.43242199  0.04266042  0.57340581    -0.16400
C1174       C  0.44982861  0.05149571  0.60051623     0.02600
C1175       C  0.44336038  0.13979070  0.60155138     0.12500
C1176       C  0.41309335  0.12359040  0.53943074     0.63100
H1177       H  0.40689969  0.05980244  0.53404953     0.12500
C1178       C  0.46640834  0.02793056  0.62138067     0.55300
H1179       H  0.46436272  0.09033731  0.62941743     0.08300
C1180       C  0.42306421  0.15366361  0.62421090    -0.05500
C1181       C  0.43169300  0.18241455  0.63781933    -0.06200
C1182       C  0.46077703  0.19671655  0.63139069    -0.15800
C1183       C  0.48094442  0.18307325  0.60833766    -0.01400
C1184       C  0.47153373  0.15508987  0.59351169    -0.08900
C1185       C  0.39314995  0.13744737  0.63523016     0.65300
H1186       H  0.41598752  0.19363941  0.65442397     0.10800
C1187       C  0.51209178  0.19757605  0.59836828     0.63700
H1188       H  0.48691891  0.14419785  0.57627446     0.08100
F1189       F  0.44544536  0.00546147  0.63174011    -0.19300
F1190       F  0.47915621  0.04179250  0.64761780    -0.15500
F1191       F  0.49084981  0.01396371  0.60492029    -0.19000
F1192       F  0.43899704  0.14047645  0.52938881    -0.22400
F1193       F  0.39192255  0.14373765  0.55358015    -0.23900
F1194       F  0.39898674  0.11077065  0.51339138    -0.17900
F1195       F  0.53309840  0.17472308  0.58864805    -0.20400
F1196       F  0.52603108  0.21383132  0.62244442    -0.21500
F1197       F  0.50708259  0.21777935  0.57370132    -0.18700
F1198       F  0.37628187  0.15551341  0.65647212    -0.18800
F1199       F  0.40056151  0.10956086  0.64966407    -0.22600
F1200       F  0.37397206  0.13137996  0.61015351    -0.24200
C1201       C  0.38011294  0.57144695  0.54357272    -0.11000
C1202       C  0.37073328  0.60213598  0.55088400     0.11500
C1203       C  0.39101607  0.62150554  0.56837465    -0.02900
C1204       C  0.42117157  0.61028390  0.57570116    -0.05600
C1205       C  0.43144248  0.58053886  0.56616075    -0.16400
C1206       C  0.41048290  0.56044952  0.55058238     0.02600
C1207       C  0.34099927  0.61439945  0.53734733     0.12500
C1208       C  0.38107577  0.65411852  0.57857539     0.63100
H1209       H  0.43763200  0.62530084  0.58763145     0.12500
C1210       C  0.42076764  0.52798463  0.54067082     0.55300
H1211       H  0.36406788  0.55679882  0.53069158     0.08300
C1212       C  0.33997409  0.62552826  0.50611544    -0.05500
C1213       C  0.31155779  0.63764590  0.49477567    -0.06200
C1214       C  0.28436812  0.63945821  0.51362562    -0.15800
C1215       C  0.28539844  0.62842364  0.54496481    -0.01400
C1216       C  0.31375631  0.61573118  0.55617621    -0.08900
C1217       C  0.36898084  0.62504185  0.48496889     0.65300
H1218       H  0.31041456  0.64600804  0.47097983     0.10800
C1219       C  0.25696102  0.63064125  0.56672028     0.63700
H1220       H  0.31502879  0.60699119  0.57991058     0.08100
F1221       F  0.44489088  0.53007948  0.51876306    -0.19300
F1222       F  0.39641350  0.51126851  0.52758400    -0.15500
F1223       F  0.43125482  0.51171794  0.56648871    -0.19000
F1224       F  0.35568951  0.65205165  0.59898030    -0.22400
F1225       F  0.37265328  0.67176579  0.55290567    -0.23900
F1226       F  0.40496791  0.66969416  0.59373528    -0.17900
F1227       F  0.23355099  0.61097292  0.55643768    -0.20400
F1228       F  0.24575836  0.66095834  0.56741706    -0.21500
F1229       F  0.26416069  0.62216553  0.59707072    -0.18700
F1230       F  0.36326594  0.63831043  0.45604394    -0.18800
F1231       F  0.37866203  0.59458637  0.48008458    -0.22600
F1232       F  0.39301728  0.64163572  0.49867248    -0.24200
C1233       C  0.57706731  0.57347333  0.40952137    -0.11000
C1234       C  0.56201697  0.54812212  0.39539977     0.11500
C1235       C  0.53644101  0.53372806  0.41142711    -0.02900
C1236       C  0.52930050  0.54300352  0.44249573    -0.05600
C1237       C  0.54563609  0.56725487  0.45734517    -0.16400
C1238       C  0.56860741  0.58412127  0.43972481     0.02600
C1239       C  0.57570144  0.53560217  0.36537783     0.12500
C1240       C  0.51669327  0.50878102  0.39585680     0.63100
H1241       H  0.51155538  0.53053397  0.45591548     0.12500
C1242       C  0.58616293  0.61170467  0.45316116     0.55300
H1243       H  0.59683547  0.58394342  0.39726602     0.08300
C1244       C  0.57514698  0.55241364  0.33675307    -0.05500
C1245       C  0.59180512  0.54040755  0.31054559    -0.06200
C1246       C  0.60776641  0.51166447  0.31163345    -0.15800
C1247       C  0.60525391  0.49337123  0.33926901    -0.01400
C1248       C  0.59106583  0.50658219  0.36613004    -0.08900
C1249       C  0.55688989  0.58271615  0.33370988     0.65300
H1250       H  0.59270161  0.55358903  0.28890779     0.10800
C1251       C  0.61502426  0.45935381  0.34149724     0.63700
H1252       H  0.59133692  0.49360698  0.38792256     0.08100
F1253       F  0.60349548  0.62733597  0.43040050    -0.19300
F1254       F  0.60669044  0.60128666  0.47550631    -0.15500
F1255       F  0.56524557  0.63286389  0.46621443    -0.19000
F1256       F  0.53396432  0.48177694  0.39153677    -0.22400
F1257       F  0.50664676  0.51943073  0.36711706    -0.23900
F1258       F  0.49037181  0.50141249  0.41374576    -0.17900
F1259       F  0.63812780  0.45621758  0.36371245    -0.20400
F1260       F  0.62584790  0.44715900  0.31339651    -0.21500
F1261       F  0.58931627  0.44177585  0.35088957    -0.18700
F1262       F  0.55461042  0.59194776  0.30275561    -0.18800
F1263       F  0.57163857  0.60628643  0.34998065    -0.22600
F1264       F  0.52674589  0.57892276  0.34554257    -0.24200
C1265       C  0.47944842  0.36829092  0.62614413    -0.11000
C1266       C  0.50384655  0.36837677  0.60365406     0.11500
C1267       C  0.51839593  0.33953873  0.59563394    -0.02900
C1268       C  0.50929330  0.31220318  0.61196842    -0.05600
C1269       C  0.48491718  0.31222641  0.63462566    -0.16400
C1270       C  0.46805290  0.34044183  0.63972966     0.02600
C1271       C  0.51356882  0.39905123  0.58934717     0.12500
C1272       C  0.54300671  0.33734243  0.56961652     0.63100
H1273       H  0.52159430  0.29047496  0.60743620     0.12500
C1274       C  0.43666479  0.34231743  0.65675102     0.55300
H1275       H  0.46817778  0.39020264  0.63227728     0.08300
C1276       C  0.49322999  0.41730035  0.57062771    -0.05500
C1277       C  0.50229059  0.44802870  0.56242732    -0.06200
C1278       C  0.53181337  0.46034835  0.57025626    -0.15800
C1279       C  0.55369925  0.44035390  0.58515404    -0.01400
C1280       C  0.54351328  0.41081978  0.59592653    -0.08900
C1281       C  0.46223149  0.40444721  0.55904041     0.65300
H1282       H  0.48589193  0.46307269  0.55044529     0.10800
C1283       C  0.58724365  0.45027043  0.59104523     0.63700
H1284       H  0.55868458  0.39701580  0.61059905     0.08100
F1285       F  0.42464413  0.31327686  0.66429130    -0.19300
F1286       F  0.41514799  0.35683190  0.63759246    -0.15500
F1287       F  0.43967751  0.35993779  0.68367733    -0.19000
F1288       F  0.57050824  0.35163021  0.57862029    -0.22400
F1289       F  0.53206204  0.35169349  0.54288365    -0.23900
F1290       F  0.54996770  0.30660175  0.56217444    -0.17900
F1291       F  0.58744931  0.47438064  0.61234821    -0.20400
F1292       F  0.60137148  0.45974178  0.56328570    -0.21500
F1293       F  0.60505726  0.42611180  0.60303113    -0.18700
F1294       F  0.44914786  0.42372794  0.53669159    -0.18800
F1295       F  0.44089950  0.40168566  0.58350924    -0.22600
F1296       F  0.46700744  0.37541987  0.54554453    -0.24200
C1297       C  0.66736862  0.25588281  0.95571442    -0.11000
C1298       C  0.64769775  0.26498398  0.98060166     0.11500
C1299       C  0.64483618  0.24536508  0.00728000    -0.02900
C1300       C  0.66271573  0.21758963  0.00831203    -0.05600
C1301       C  0.68403295  0.20962047  0.98423000    -0.16400
C1302       C  0.68649499  0.22924938  0.95743988     0.02600
C1303       C  0.62964753  0.29465548  0.97723580     0.12500
C1304       C  0.62426486  0.25448903  0.03516369     0.63100
H1305       H  0.66198320  0.20302179  0.02903836     0.12500
C1306       C  0.71034365  0.22476291  0.93098720     0.55300
H1307       H  0.66883534  0.27061385  0.93509446     0.08300
C1308       C  0.64379314  0.32463606  0.97864654    -0.05500
C1309       C  0.62517308  0.35130579  0.97291073    -0.06200
C1310       C  0.59294282  0.34901910  0.96638995    -0.15800
C1311       C  0.57869555  0.31874624  0.96640658    -0.01400
C1312       C  0.59767830  0.29227736  0.97085479    -0.08900
C1313       C  0.67829947  0.32851181  0.98641562     0.65300
H1314       H  0.63580687  0.37426817  0.97328872     0.10800
C1315       C  0.54355480  0.31368496  0.96255490     0.63700
H1316       H  0.58766118  0.26909662  0.96919332     0.08100
F1317       F  0.73112661  0.24959985  0.93095287    -0.19300
F1318       F  0.69491044  0.22429721  0.90270053    -0.15500
F1319       F  0.72748897  0.19746520  0.93323098    -0.19000
F1320       F  0.59304151  0.25428149  0.02682058    -0.22400
F1321       F  0.63221692  0.28408531  0.04535402    -0.23900
F1322       F  0.62776543  0.23407671  0.06001606    -0.17900
F1323       F  0.53489164  0.28301615  0.96834354    -0.20400
F1324       F  0.53500077  0.32071545  0.93225154    -0.21500
F1325       F  0.52697051  0.33227746  0.98352135    -0.18700
F1326       F  0.68652541  0.35965992  0.98937343    -0.18800
F1327       F  0.69689332  0.31564166  0.96299623    -0.22600
F1328       F  0.68463532  0.31376431  0.01442548    -0.24200
C1329       C  0.51342839  0.33394981  0.74802828    -0.11000
C1330       C  0.48674978  0.33609902  0.76764256     0.11500
C1331       C  0.45749778  0.32538585  0.75668734    -0.02900
C1332       C  0.45652638  0.31038043  0.72744055    -0.05600
C1333       C  0.48348167  0.30643503  0.70831669    -0.16400
C1334       C  0.51238679  0.31905183  0.71850713     0.02600
C1335       C  0.48997590  0.35008314  0.79942379     0.12500
C1336       C  0.42755331  0.32903556  0.77616162     0.63100
H1337       H  0.43486529  0.29955633  0.72012545     0.12500
C1338       C  0.54211021  0.31613511  0.69875543     0.55300
H1339       H  0.53533473  0.34335402  0.75649816     0.08300
C1340       C  0.50113496  0.33289012  0.82543619    -0.05500
C1341       C  0.50438986  0.34825088  0.85454519    -0.06200
C1342       C  0.49667690  0.37994076  0.85815881    -0.15800
C1343       C  0.48375660  0.39648162  0.83245190    -0.01400
C1344       C  0.48125040  0.38132457  0.80340084    -0.08900
C1345       C  0.51019926  0.29871689  0.82217154     0.65300
H1346       H  0.51436991  0.33604977  0.87424708     0.10800
C1347       C  0.47169770  0.42981498  0.83573063     0.63700
H1348       H  0.47255296  0.39386111  0.78327296     0.08100
F1349       F  0.54795763  0.28516921  0.69151016    -0.19300
F1350       F  0.56803373  0.32775676  0.71412089    -0.15500
F1351       F  0.53871503  0.33294545  0.67144022    -0.19000
F1352       F  0.42063397  0.36038540  0.77980764    -0.22400
F1353       F  0.43121175  0.31568426  0.80535059    -0.23900
F1354       F  0.40212760  0.31488375  0.76212731    -0.17900
F1355       F  0.45670031  0.43981720  0.80897375    -0.20400
F1356       F  0.49613301  0.45021836  0.84123337    -0.21500
F1357       F  0.45024010  0.43134792  0.86023195    -0.18700
F1358       F  0.51887243  0.28592042  0.85054019    -0.18800
F1359       F  0.53525156  0.29579629  0.80146210    -0.22600
F1360       F  0.48512541  0.28169121  0.81104639    -0.24200
C1361       C  0.58686443  0.43496931  0.09182792    -0.11000
C1362       C  0.56447941  0.44593715  0.11333868     0.11500
C1363       C  0.53322981  0.45094944  0.10311570    -0.02900
C1364       C  0.52597289  0.44574819  0.07113836    -0.05600
C1365       C  0.54879356  0.43518200  0.04948239    -0.16400
C1366       C  0.57950250  0.42861208  0.06050893     0.02600
C1367       C  0.57607671  0.45449173  0.14524952     0.12500
C1368       C  0.50782327  0.46195571  0.12577934     0.63100
H1369       H  0.50268520  0.45082592  0.06262085     0.12500
C1370       C  0.60461486  0.41439891  0.03956330     0.55300
H1371       H  0.61069465  0.43190014  0.09983496     0.08300
C1372       C  0.58676363  0.43183020  0.16702459    -0.05500
C1373       C  0.60283036  0.44192820  0.19394885    -0.06200
C1374       C  0.60771075  0.47371505  0.20022454    -0.15800
C1375       C  0.59558133  0.49637213  0.17940285    -0.01400
C1376       C  0.58081278  0.48628891  0.15180240    -0.08900
C1377       C  0.58087960  0.39715738  0.16219129     0.65300
H1378       H  0.61185527  0.42502207  0.21039428     0.10800
C1379       C  0.59805143  0.53108136  0.18636561     0.63700
H1380       H  0.57323743  0.50327250  0.13471435     0.08100
F1381       F  0.63208057  0.40825293  0.05544272    -0.19300
F1382       F  0.61184682  0.43463647  0.01534013    -0.15500
F1383       F  0.59368992  0.38633546  0.02810947    -0.19000
F1384       F  0.51434602  0.49186947  0.13594645    -0.22400
F1385       F  0.50633821  0.44216645  0.15133202    -0.23900
F1386       F  0.47858388  0.46229183  0.11200275    -0.17900
F1387       F  0.58699156  0.54910252  0.16195555    -0.20400
F1388       F  0.62895744  0.53928824  0.19138264    -0.21500
F1389       F  0.58037811  0.53809759  0.21283314    -0.18700
F1390       F  0.59069105  0.37963420  0.18750199    -0.18800
F1391       F  0.59689376  0.38653363  0.13594330    -0.22600
F1392       F  0.54910990  0.39199374  0.15849837    -0.24200
C1393       C  0.37620917  0.43593104  0.97107699    -0.11000
C1394       C  0.36596674  0.40950465  0.95452589     0.11500
C1395       C  0.38575858  0.39632398  0.93106456    -0.02900
C1396       C  0.41608494  0.40882569  0.92649130    -0.05600
C1397       C  0.42716075  0.43386302  0.94454003    -0.16400
C1398       C  0.40672283  0.44824908  0.96660130     0.02600
C1399       C  0.33489285  0.39537922  0.96292860     0.12500
C1400       C  0.37517023  0.36865812  0.91151120     0.63100
H1401       H  0.43207103  0.39795802  0.90985050     0.12500
C1402       C  0.41716605  0.47663822  0.98494259     0.55300
H1403       H  0.36042374  0.44618500  0.98831170     0.08300
C1404       C  0.33132579  0.37436218  0.98836812    -0.05500
C1405       C  0.30169800  0.36069367  0.99412184    -0.06200
C1406       C  0.27579127  0.36690658  0.97507736    -0.15800
C1407       C  0.27913411  0.38872357  0.95018356    -0.01400
C1408       C  0.30873705  0.40270228  0.94468622    -0.08900
C1409       C  0.35880707  0.36621380  0.00918985     0.65300
H1410       H  0.29854386  0.34475059  0.01354897     0.10800
C1411       C  0.25185211  0.39683375  0.92906533     0.63700
H1412       H  0.31189090  0.41925806  0.92574173     0.08100
F1413       F  0.44189338  0.46885779  0.00407297    -0.19300
F1414       F  0.39313428  0.48851863  0.00358355    -0.15500
F1415       F  0.42674571  0.49978161  0.96433294    -0.19000
F1416       F  0.34913549  0.37691324  0.89440260    -0.22400
F1417       F  0.36749578  0.34372056  0.93069217    -0.23900
F1418       F  0.39837293  0.35887484  0.89068812    -0.17900
F1419       F  0.22908828  0.41287203  0.94589062    -0.20400
F1420       F  0.23884304  0.36993925  0.91689687    -0.21500
F1421       F  0.26126470  0.41552478  0.90421339    -0.18700
F1422       F  0.35058275  0.34441275  0.03179048    -0.18800
F1423       F  0.36921266  0.39276420  0.02426328    -0.22600
F1424       F  0.38317744  0.35388503  0.99139290    -0.24200
C1425       C  0.82890065  0.90225990  0.48516626    -0.11000
C1426       C  0.84479701  0.89944544  0.45636516     0.11500
C1427       C  0.83299513  0.87911351  0.43317194    -0.02900
C1428       C  0.80438434  0.86366249  0.43905270    -0.05600
C1429       C  0.78864731  0.86593247  0.46809673    -0.16400
C1430       C  0.80145128  0.88511516  0.49190488     0.02600
C1431       C  0.87703798  0.91230022  0.45411539     0.12500
C1432       C  0.85148806  0.87224788  0.40320815     0.63100
H1433       H  0.79460770  0.84881895  0.42125511     0.12500
C1434       C  0.78749168  0.88657037  0.52484310     0.55300
H1435       H  0.83911273  0.91697713  0.50298671     0.08300
C1436       C  0.88445982  0.94180009  0.44107666    -0.05500
C1437       C  0.91640651  0.95014406  0.43753357    -0.06200
C1438       C  0.94045352  0.93112034  0.44932646    -0.15800
C1439       C  0.93227890  0.90293123  0.46547609    -0.01400
C1440       C  0.90071696  0.89387595  0.46669550    -0.08900
C1441       C  0.85880395  0.96484686  0.43282043     0.65300
H1442       H  0.92280865  0.97196197  0.42631999     0.10800
C1443       C  0.95622956  0.88177992  0.48120400     0.63700
H1444       H  0.89395821  0.87202281  0.47765925     0.08100
F1445       F  0.76194023  0.90646232  0.52546375    -0.19300
F1446       F  0.80914419  0.89759156  0.54607161    -0.15500
F1447       F  0.77822539  0.85719418  0.53477897    -0.19000
F1448       F  0.87985693  0.85849063  0.41045954    -0.22400
F1449       F  0.85723295  0.89950886  0.38685107    -0.23900
F1450       F  0.83551988  0.85208487  0.38369622    -0.17900
F1451       F  0.94258159  0.85513983  0.49375589    -0.20400
F1452       F  0.97023131  0.89758669  0.50559006    -0.21500
F1453       F  0.97880407  0.87220000  0.45971411    -0.18700
F1454       F  0.87104143  0.99225927  0.42054755    -0.18800
F1455       F  0.84171650  0.97219760  0.45959279    -0.22600
F1456       F  0.83878619  0.95214395  0.41108119    -0.24200
C1457       C  0.62175655  0.88292446  0.49582586    -0.11000
C1458       C  0.62121649  0.89062850  0.52779112     0.11500
C1459       C  0.64822688  0.88474829  0.54594795    -0.02900
C1460       C  0.67473097  0.87098077  0.53133240    -0.05600
C1461       C  0.67512608  0.86323271  0.49936132    -0.16400
C1462       C  0.64872757  0.87064236  0.48094254     0.02600
C1463       C  0.59116010  0.90267231  0.54165887     0.12500
C1464       C  0.64906864  0.89283637  0.58055776     0.63100
H1465       H  0.69528750  0.86547256  0.54494430     0.12500
C1466       C  0.64785466  0.86674814  0.44567466     0.55300
H1467       H  0.60088878  0.88704486  0.48215123     0.08300
C1468       C  0.57950427  0.93312536  0.53556890    -0.05500
C1469       C  0.54864282  0.94088427  0.54551238    -0.06200
C1470       C  0.52953158  0.91932280  0.56156257    -0.15800
C1471       C  0.54209695  0.88961735  0.56930764    -0.01400
C1472       C  0.57253171  0.88172520  0.55885067    -0.08900
C1473       C  0.59928835  0.95700341  0.51798833     0.65300
H1474       H  0.53860424  0.96327523  0.53935564     0.10800
C1475       C  0.52291795  0.86562228  0.58726265     0.63700
H1476       H  0.58154612  0.85839537  0.56273884     0.08100
F1477       F  0.67710915  0.86113525  0.43250374    -0.19300
F1478       F  0.63647427  0.89386809  0.43230413    -0.15500
F1479       F  0.62802745  0.84233308  0.43834772    -0.19000
F1480       F  0.62737985  0.87506445  0.59699389    -0.22400
F1481       F  0.64213510  0.92412099  0.58475522    -0.23900
F1482       F  0.67832738  0.88721819  0.59314469    -0.17900
F1483       F  0.54062278  0.83974271  0.59524506    -0.20400
F1484       F  0.49835238  0.85554805  0.56904601    -0.21500
F1485       F  0.51142860  0.87880843  0.61466435    -0.18700
F1486       F  0.58489191  0.98599846  0.51740849    -0.18800
F1487       F  0.60417218  0.94742470  0.48741077    -0.22600
F1488       F  0.62799145  0.96034993  0.53234595    -0.24200
C1489       C  0.64938306  0.74424942  0.47834488    -0.11000
C1490       C  0.64367971  0.73888712  0.51017145     0.11500
C1491       C  0.65306747  0.76127980  0.53257155    -0.02900
C1492       C  0.66898474  0.78820950  0.52206643    -0.05600
C1493       C  0.67619655  0.79279533  0.49020080    -0.16400
C1494       C  0.66526813  0.77090276  0.46781683     0.02600
C1495       C  0.62848375  0.70901346  0.51891809     0.12500
C1496       C  0.64776673  0.75594482  0.56739333     0.63100
H1497       H  0.67848119  0.80440962  0.53894362     0.12500
C1498       C  0.67129723  0.77324356  0.43277398     0.55300
H1499       H  0.64207975  0.72682578  0.46148198     0.08300
C1500       C  0.59572934  0.70503295  0.51640984    -0.05500
C1501       C  0.58287107  0.67589084  0.52402175    -0.06200
C1502       C  0.60157778  0.65053697  0.53340593    -0.15800
C1503       C  0.63451208  0.65415448  0.53491186    -0.01400
C1504       C  0.64751532  0.68360653  0.52749033    -0.08900
C1505       C  0.57446056  0.73130965  0.50540955     0.65300
H1506       H  0.55771908  0.67255430  0.52251945     0.10800
C1507       C  0.65552040  0.62753426  0.54509764     0.63700
H1508       H  0.67267912  0.68712072  0.52830024     0.08100
F1509       F  0.64300329  0.77148622  0.41734233    -0.19300
F1510       F  0.69004085  0.74850861  0.42324861    -0.15500
F1511       F  0.68581938  0.80070447  0.42389396    -0.19000
F1512       F  0.66391555  0.72960479  0.57674654    -0.22400
F1513       F  0.61614078  0.75182479  0.57374122    -0.23900
F1514       F  0.65811770  0.78096492  0.58503719    -0.17900
F1515       F  0.65352215  0.60315813  0.52398317    -0.20400
F1516       F  0.64621274  0.61719056  0.57446521    -0.21500
F1517       F  0.68666898  0.63661327  0.54657451    -0.18700
F1518       F  0.54308539  0.72287464  0.50659794    -0.18800
F1519       F  0.58190060  0.73903346  0.47478464    -0.22600
F1520       F  0.57814755  0.75738799  0.52408709    -0.24200
C1521       C  0.80799198  0.74743331  0.44027987    -0.11000
C1522       C  0.82122941  0.73783939  0.46852695     0.11500
C1523       C  0.82017892  0.75819156  0.49471023    -0.02900
C1524       C  0.80330698  0.78644597  0.49232782    -0.05600
C1525       C  0.78699760  0.79433249  0.46506380    -0.16400
C1526       C  0.79027906  0.77499306  0.43817941     0.02600
C1527       C  0.83592943  0.70628130  0.46955189     0.12500
C1528       C  0.83555374  0.74948281  0.52538117     0.63100
H1529       H  0.80023863  0.80119775  0.51274401     0.12500
C1530       C  0.77403599  0.78105959  0.40734880     0.55300
H1531       H  0.80997691  0.73222332  0.42002194     0.08300
C1532       C  0.81797979  0.67836044  0.47078121    -0.05500
C1533       C  0.83356754  0.64933860  0.46776176    -0.06200
C1534       C  0.86637248  0.64752924  0.46420187    -0.15800
C1535       C  0.88435555  0.67566427  0.46604484    -0.01400
C1536       C  0.86859696  0.70446915  0.46753589    -0.08900
C1537       C  0.78253951  0.67929040  0.47519396     0.65300
H1538       H  0.82012298  0.62789048  0.46735113     0.10800
C1539       C  0.92008705  0.67592704  0.46714198     0.63700
H1540       H  0.88178666  0.72608551  0.46660090     0.08100
F1541       F  0.75390470  0.75657110  0.40107457    -0.19300
F1542       F  0.79639803  0.78276230  0.38361319    -0.15500
F1543       F  0.75686649  0.80844616  0.40718535    -0.19000
F1544       F  0.86775917  0.74818249  0.52122456    -0.22400
F1545       F  0.82484095  0.72066867  0.53549568    -0.23900
F1546       F  0.82900947  0.77108017  0.54872218    -0.17900
F1547       F  0.93149738  0.70466656  0.47661611    -0.20400
F1548       F  0.93260914  0.66967855  0.43776250    -0.21500
F1549       F  0.93047195  0.65390824  0.48835174    -0.18700
F1550       F  0.76999748  0.64964176  0.47870380    -0.18800
F1551       F  0.76880362  0.69306109  0.44952686    -0.22600
F1552       F  0.77484157  0.69633810  0.50172017    -0.24200
C1553       C  0.47433813  0.86350832  0.88727124    -0.11000
C1554       C  0.44569697  0.86483977  0.90400911     0.11500
C1555       C  0.42769103  0.83702083  0.90704023    -0.02900
C1556       C  0.43754744  0.80990557  0.89071678    -0.05600
C1557       C  0.46544263  0.80909963  0.87280357    -0.16400
C1558       C  0.48539163  0.83570571  0.87319344     0.02600
C1559       C  0.43555781  0.89568103  0.91788794     0.12500
C1560       C  0.39894068  0.83539112  0.92839673     0.63100
H1561       H  0.42326674  0.78898309  0.89159733     0.12500
C1562       C  0.51908490  0.83581615  0.86116758     0.55300
H1563       H  0.48873812  0.88434258  0.88583246     0.08300
C1564       C  0.45400666  0.91256803  0.93958081    -0.05500
C1565       C  0.44681318  0.94426407  0.94564551    -0.06200
C1566       C  0.41988859  0.95881280  0.93359531    -0.15800
C1567       C  0.39905718  0.94037656  0.91547794    -0.01400
C1568       C  0.40830818  0.90991383  0.90648581    -0.08900
C1569       C  0.48191840  0.89822132  0.95593585     0.65300
H1570       H  0.46256350  0.95795606  0.95990407     0.10800
C1571       C  0.36785656  0.95282815  0.90426624     0.63700
H1572       H  0.39483583  0.89741812  0.88923595     0.08100
F1573       F  0.53861895  0.84471312  0.88522682    -0.19300
F1574       F  0.52221591  0.85719374  0.83706838    -0.15500
F1575       F  0.52913976  0.80692439  0.85070359    -0.19000
F1576       F  0.37449630  0.85227721  0.91591218    -0.22400
F1577       F  0.40610404  0.84732863  0.95754157    -0.23900
F1578       F  0.38876588  0.80493077  0.93249535    -0.17900
F1579       F  0.37291458  0.97691277  0.88352799    -0.20400
F1580       F  0.35009938  0.96329506  0.92950920    -0.21500
F1581       F  0.35058648  0.93012246  0.88909878    -0.18700
F1582       F  0.48414202  0.91002308  0.98601778    -0.18800
F1583       F  0.50918475  0.90537347  0.93955773    -0.22600
F1584       F  0.47910219  0.86611281  0.95839246    -0.24200
C1585       C  0.48654844  0.64592605  0.89624953    -0.11000
C1586       C  0.51788371  0.64128611  0.90514209     0.11500
C1587       C  0.54018985  0.66527023  0.89848522    -0.02900
C1588       C  0.53060878  0.69203530  0.88167126    -0.05600
C1589       C  0.49937967  0.69627903  0.87257727    -0.16400
C1590       C  0.47663390  0.67367496  0.88144408     0.02600
C1591       C  0.52719982  0.60977545  0.91776473     0.12500
C1592       C  0.57400321  0.66292887  0.90916165     0.63100
H1593       H  0.54754607  0.70989733  0.87535487     0.12500
C1594       C  0.44187240  0.67942112  0.87627187     0.55300
H1595       H  0.46982475  0.62738022  0.90064260     0.08300
C1596       C  0.51569400  0.59683770  0.94640598    -0.05500
C1597       C  0.52230338  0.56506348  0.95347961    -0.06200
C1598       C  0.54149092  0.54645338  0.93388361    -0.15800
C1599       C  0.55536869  0.56079101  0.90700200    -0.01400
C1600       C  0.54681945  0.59141992  0.89884934    -0.08900
C1601       C  0.49650416  0.61627408  0.96938805     0.65300
H1602       H  0.51162974  0.55422475  0.97390876     0.10800
C1603       C  0.57669948  0.54326305  0.88474596     0.63700
H1604       H  0.55433053  0.60084427  0.87645811     0.08100
F1605       F  0.43246387  0.70543985  0.89317091    -0.19300
F1606       F  0.42370900  0.65436316  0.88607769    -0.15500
F1607       F  0.43610264  0.68453903  0.84493908    -0.19000
F1608       F  0.59054078  0.64210813  0.89051653    -0.22400
F1609       F  0.57486796  0.65302535  0.93996092    -0.23900
F1610       F  0.58907108  0.69154157  0.90738414    -0.17900
F1611       F  0.55864219  0.52325620  0.86734163    -0.20400
F1612       F  0.59905673  0.52710647  0.90131531    -0.21500
F1613       F  0.59244854  0.56306783  0.86425767    -0.18700
F1614       F  0.49316503  0.60135937  0.99800620    -0.18800
F1615       F  0.46687892  0.62164213  0.95778833    -0.22600
F1616       F  0.51125741  0.64457187  0.97445708    -0.24200
C1617       C  0.42982414  0.82471411  0.75853193    -0.11000
C1618       C  0.45642839  0.83560421  0.74210122     0.11500
C1619       C  0.48621339  0.83392817  0.75643254    -0.02900
C1620       C  0.48865477  0.81867401  0.78546980    -0.05600
C1621       C  0.46255745  0.80507984  0.80059175    -0.16400
C1622       C  0.43247332  0.80880595  0.78732756     0.02600
C1623       C  0.45245034  0.84901696  0.71010156     0.12500
C1624       C  0.51561303  0.84690384  0.74057730     0.63100
H1625       H  0.51153281  0.81461396  0.79513514     0.12500
C1626       C  0.40360112  0.79449259  0.80271970     0.55300
H1627       H  0.40712856  0.82742585  0.74782457     0.08300
C1628       C  0.44770252  0.83040894  0.68299617    -0.05500
C1629       C  0.44466760  0.84524396  0.65350794    -0.06200
C1630       C  0.44610331  0.87790186  0.65057767    -0.15800
C1631       C  0.45209213  0.89623725  0.67793395    -0.01400
C1632       C  0.45416471  0.88137047  0.70709306    -0.08900
C1633       C  0.44542909  0.79511301  0.68539569     0.65300
H1634       H  0.44014729  0.83153439  0.63273958     0.10800
C1635       C  0.45676530  0.93155171  0.67706574     0.63700
H1636       H  0.45711535  0.89509304  0.72816844     0.08100
F1637       F  0.40641968  0.76231460  0.80343488    -0.19300
F1638       F  0.37647136  0.80187559  0.78682256    -0.15500
F1639       F  0.40044846  0.80559517  0.83295756    -0.19000
F1640       F  0.51346689  0.87903638  0.73837438    -0.22400
F1641       F  0.51905995  0.83435023  0.71089092    -0.23900
F1642       F  0.54244859  0.83999165  0.75717117    -0.17900
F1643       F  0.42814171  0.94641733  0.67388438    -0.20400
F1644       F  0.47659866  0.93966437  0.65251515    -0.21500
F1645       F  0.47026625  0.94255199  0.70425729    -0.18700
F1646       F  0.44296850  0.78124063  0.65624710    -0.18800
F1647       F  0.41917234  0.78698880  0.70293870    -0.22600
F1648       F  0.47190120  0.78333359  0.69962777    -0.24200
C1649       C  0.53269550  0.69984310  0.74874344    -0.11000
C1650       C  0.51650535  0.67228731  0.74189618     0.11500
C1651       C  0.50007586  0.65676596  0.76663240    -0.02900
C1652       C  0.49472027  0.67292614  0.79508656    -0.05600
C1653       C  0.50753702  0.70268171  0.80022843    -0.16400
C1654       C  0.52969746  0.71446731  0.77797276     0.02600
C1655       C  0.51666402  0.66164030  0.70853345     0.12500
C1656       C  0.48739948  0.62376799  0.76419216     0.63100
H1657       H  0.47914037  0.66284107  0.81250142     0.12500
C1658       C  0.54861493  0.74402940  0.78292343     0.55300
H1659       H  0.54690869  0.71086246  0.73061562     0.08300
C1660       C  0.48894427  0.65868889  0.69044767    -0.05500
C1661       C  0.49109010  0.64435535  0.66077853    -0.06200
C1662       C  0.52013105  0.63579153  0.64760694    -0.15800
C1663       C  0.54809472  0.64373374  0.66335783    -0.01400
C1664       C  0.54586042  0.65549044  0.69407674    -0.08900
C1665       C  0.45673723  0.67021583  0.70085353     0.65300
H1666       H  0.46981242  0.63921542  0.64808960     0.10800
C1667       C  0.58004364  0.64104944  0.64720249     0.63700
H1668       H  0.56701999  0.65963123  0.70723905     0.08100
F1669       F  0.57995202  0.73802524  0.77645953    -0.19300
F1670       F  0.53828654  0.76697825  0.76272280    -0.15500
F1671       F  0.54641171  0.75496983  0.81333149    -0.19000
F1672       F  0.49573080  0.60917882  0.73641844    -0.22400
F1673       F  0.45501586  0.62431313  0.76687087    -0.23900
F1674       F  0.49925545  0.60606803  0.78842088    -0.17900
F1675       F  0.60363689  0.65381124  0.66515052    -0.20400
F1676       F  0.57946626  0.65700327  0.61905981    -0.21500
F1677       F  0.58759965  0.61022165  0.64144451    -0.18700
F1678       F  0.44425498  0.68862463  0.67747149    -0.18800
F1679       F  0.45733161  0.68806997  0.72778724    -0.22600
F1680       F  0.43715077  0.64489712  0.70578399    -0.24200
C1681       C  0.88449300  0.48649611  0.84559020    -0.11000
C1682       C  0.87542953  0.46122549  0.86465151     0.11500
C1683       C  0.84893739  0.44329540  0.85600835    -0.02900
C1684       C  0.83477136  0.44914453  0.82690395    -0.05600
C1685       C  0.84303393  0.47500644  0.80815978    -0.16400
C1686       C  0.86784586  0.49471769  0.81836138     0.02600
C1687       C  0.88998720  0.45819838  0.89628532     0.12500
C1688       C  0.83410531  0.41975020  0.87841143     0.63100
H1689       H  0.81627632  0.43391636  0.81903952     0.12500
C1690       C  0.87647417  0.52520618  0.80209597     0.55300
H1691       H  0.90380933  0.50099645  0.85318897     0.08300
C1692       C  0.91425243  0.43680414  0.90350611    -0.05500
C1693       C  0.92378068  0.43367286  0.93512871    -0.06200
C1694       C  0.91163179  0.45306393  0.95915458    -0.15800
C1695       C  0.88965654  0.47704064  0.95058932    -0.01400
C1696       C  0.87898275  0.47839695  0.91957587    -0.08900
C1697       C  0.93109208  0.41885267  0.87762714     0.65300
H1698       H  0.94112386  0.41627247  0.94120932     0.10800
C1699       C  0.87640989  0.50117912  0.97356214     0.63700
H1700       H  0.86129653  0.49529055  0.91302785     0.08100
F1701       F  0.89937555  0.51966574  0.77954674    -0.19300
F1702       F  0.88807934  0.54655320  0.82338483    -0.15500
F1703       F  0.85074390  0.53894640  0.78827411    -0.19000
F1704       F  0.82516407  0.43465641  0.90585301    -0.22400
F1705       F  0.85510959  0.39630386  0.88541155    -0.23900
F1706       F  0.80761212  0.40604325  0.86593760    -0.17900
F1707       F  0.90065056  0.51825966  0.98638239    -0.20400
F1708       F  0.85917834  0.48646762  0.99694830    -0.21500
F1709       F  0.85659212  0.52234541  0.95928625    -0.18700
F1710       F  0.95478393  0.40017693  0.88923720    -0.18800
F1711       F  0.94440119  0.43978632  0.85666958    -0.22600
F1712       F  0.91039898  0.39998588  0.86175000    -0.24200
C1713       C  0.86322010  0.55381147  0.58848940    -0.11000
C1714       C  0.88384660  0.53746244  0.60770737     0.11500
C1715       C  0.91480926  0.53115641  0.59654694    -0.02900
C1716       C  0.92335280  0.54008024  0.56564888    -0.05600
C1717       C  0.90216820  0.55557546  0.54610342    -0.16400
C1718       C  0.87198600  0.56361948  0.55822945     0.02600
C1719       C  0.87117385  0.52579555  0.63840955     0.12500
C1720       C  0.93843249  0.51430591  0.61674904     0.63100
H1721       H  0.94608233  0.53356798  0.55599483     0.12500
C1722       C  0.84860611  0.58190045  0.53906940     0.55300
H1723       H  0.83951197  0.55785268  0.59705227     0.08300
C1724       C  0.86282752  0.54618182  0.66340756    -0.05500
C1725       C  0.84757256  0.53373320  0.69012094    -0.06200
C1726       C  0.84151060  0.50165120  0.69320902    -0.15800
C1727       C  0.85208251  0.48100756  0.66928031    -0.01400
C1728       C  0.86517954  0.49369490  0.64162545    -0.08900
C1729       C  0.87004163  0.58090539  0.66208053     0.65300
H1730       H  0.83992664  0.54910792  0.70889250     0.10800
C1731       C  0.85068824  0.44569813  0.67160271     0.63700
H1732       H  0.87113902  0.47821004  0.62234927     0.08100
F1733       F  0.86256849  0.60908950  0.52839032    -0.19300
F1734       F  0.82224546  0.59025149  0.55649584    -0.15500
F1735       F  0.83883931  0.56399768  0.51410396    -0.19000
F1736       F  0.93011564  0.48325370  0.61982186    -0.22400
F1737       F  0.93934567  0.52792167  0.64609582    -0.23900
F1738       F  0.96837714  0.51561334  0.60378156    -0.17900
F1739       F  0.87951894  0.43325895  0.66287069    -0.20400
F1740       F  0.82815173  0.43453223  0.65147360    -0.21500
F1741       F  0.84402398  0.43532245  0.70155714    -0.18700
F1742       F  0.86458183  0.59526781  0.69070523    -0.18800
F1743       F  0.85135823  0.59534990  0.64021502    -0.22600
F1744       F  0.90126876  0.58540269  0.65402105    -0.24200
C1745       C  0.72861072  0.50483338  0.83621220    -0.11000
C1746       C  0.71193553  0.47663796  0.83790980     0.11500
C1747       C  0.72564177  0.44887771  0.82594564    -0.02900
C1748       C  0.75485628  0.45077355  0.81051134    -0.05600
C1749       C  0.77077802  0.47927904  0.80709939    -0.16400
C1750       C  0.75829982  0.50649279  0.82147252     0.02600
C1751       C  0.68024835  0.47643360  0.85265912     0.12500
C1752       C  0.70890979  0.41758792  0.82826885     0.63100
H1753       H  0.76414675  0.43048523  0.79835265     0.12500
C1754       C  0.77611596  0.53717434  0.82057882     0.55300
H1755       H  0.71781833  0.52568229  0.84590575     0.08300
C1756       C  0.67638682  0.47617774  0.88551171    -0.05500
C1757       C  0.64619448  0.47154633  0.89798632    -0.06200
C1758       C  0.62008137  0.46594903  0.87887802    -0.15800
C1759       C  0.62377120  0.46704036  0.84592729    -0.01400
C1760       C  0.65390185  0.47342080  0.83335974    -0.08900
C1761       C  0.70416990  0.47944707  0.90730823     0.65300
H1762       H  0.64286724  0.47126968  0.92317831     0.10800
C1763       C  0.59700912  0.45897996  0.82426003     0.63700
H1764       H  0.65758771  0.47417248  0.80822846     0.08100
F1765       F  0.80456943  0.53330014  0.83526973    -0.19300
F1766       F  0.75984357  0.56079228  0.83591355    -0.15500
F1767       F  0.78142043  0.54655693  0.78998421    -0.19000
F1768       F  0.68213723  0.41800111  0.81035179    -0.22400
F1769       F  0.70067485  0.41148721  0.85908932    -0.23900
F1770       F  0.72773155  0.39331009  0.81767438    -0.17900
F1771       F  0.60671801  0.45840524  0.79319046    -0.20400
F1772       F  0.57329373  0.48077868  0.82714268    -0.21500
F1773       F  0.58524224  0.42978823  0.83179711    -0.18700
F1774       F  0.69520365  0.47687329  0.93848345    -0.18800
F1775       F  0.71811934  0.50831948  0.90323331    -0.22600
F1776       F  0.72603638  0.45631514  0.90097011    -0.24200
C1777       C  0.72172025  0.48128712  0.66918774    -0.11000
C1778       C  0.71236573  0.51240185  0.66590937     0.11500
C1779       C  0.73226373  0.53658414  0.67655460    -0.02900
C1780       C  0.76087272  0.52852175  0.69086672    -0.05600
C1781       C  0.76941745  0.49718816  0.69592071    -0.16400
C1782       C  0.74964170  0.47314889  0.68427542     0.02600
C1783       C  0.68137556  0.51874957  0.65145236     0.12500
C1784       C  0.72238398  0.57060733  0.67434520     0.63100
H1785       H  0.77535827  0.54661857  0.70095368     0.12500
C1786       C  0.75557525  0.43849735  0.68868271     0.55300
H1787       H  0.70630763  0.46296838  0.66090445     0.08300
C1788       C  0.67826532  0.52037183  0.61865436    -0.05500
C1789       C  0.64886290  0.52795589  0.60640692    -0.06200
C1790       C  0.62204250  0.53263505  0.62556993    -0.15800
C1791       C  0.62451560  0.52821719  0.65834790    -0.01400
C1792       C  0.65450525  0.52186741  0.67082118    -0.08900
C1793       C  0.70569454  0.51327276  0.59660043     0.65300
H1794       H  0.64651122  0.52985435  0.58126352     0.10800
C1795       C  0.59599839  0.53013441  0.67995070     0.63700
H1796       H  0.65729166  0.51917054  0.69584194     0.08100
F1797       F  0.75674188  0.42409894  0.65967596    -0.19300
F1798       F  0.73119247  0.42567144  0.70610856    -0.15500
F1799       F  0.78324839  0.43215973  0.70375964    -0.19000
F1800       F  0.69492383  0.57523676  0.69137173    -0.22400
F1801       F  0.71733238  0.57862344  0.64348105    -0.23900
F1802       F  0.74501095  0.59048609  0.68605170    -0.17900
F1803       F  0.60399586  0.52644692  0.71104652    -0.20400
F1804       F  0.57499377  0.50676479  0.67245195    -0.21500
F1805       F  0.58148457  0.55881480  0.67688126    -0.18700
F1806       F  0.69793347  0.51775133  0.56554397    -0.18800
F1807       F  0.71467734  0.48245523  0.60016821    -0.22600
F1808       F  0.73090306  0.53238938  0.60312140    -0.24200
loop_ 
_geom_bond_atom_site_label_1 
_geom_bond_atom_site_label_2 
_geom_bond_distance 
_geom_bond_site_symmetry_2 
_ccdc_geom_bond_type 
C1            C2   1.417       .  A
C1            C6   1.390       .  A
C1         C1781   1.488       .  S
C2            C3   1.418       .  A
C2         C1726   1.489       .  S
C3            C4   1.419       .  A
C3            H8   1.082       .  S
C4            C5   1.419       .  A
C4         C1685   1.508       .  S
C5            C6   1.395       .  A
C5         C1749   1.479       .  S
C6            H7   1.087       .  S
C9           C10   1.418       .  A
C9           C14   1.419       .  A
C9         C1589   1.495       .  S
C10          C11   1.397       .  A
C10        C1653   1.495       .  S
C11          C12   1.395       .  A
C11          H16   1.087       .  S
C12          C13   1.419       .  A
C12        C1621   1.488       .  S
C13          C14   1.419       .  A
C13        C1557   1.498       .  S
C14          H15   1.084       .  S
C17          C18   1.418       .  A
C17          C22   1.413       .  A
C17        C1429   1.491       .  S
C18          C19   1.392       .  A
C18        C1525   1.483       .  S
C19          C20   1.394       .  A
C19          H24   1.087       .  S
C20          C21   1.414       .  A
C20        C1493   1.479       .  S
C21          C22   1.409       .  A
C21        C1461   1.488       .  S
C22          H23   1.082       .  S
O25         Cr43   2.078       .  S
O25          C33   1.283       .  A
O26         Cr43   1.972       .  S
O26          C27   1.260   1_556  A
C27        C1365   1.501       .  S
C27          O28   1.279       .  A
O28         Cr44   2.067   1_554  S
O29         Cr44   1.967       .  S
O29          C30   1.259       .  A
C30        C1397   1.485       .  S
C30          O31   1.275       .  A
O31         Cr45   2.046       .  S
O32         Cr45   1.972       .  S
O32          C33   1.260       .  A
C33        C1598   1.506       .  S
O34         Cr43   1.944       .  S
O34          C42   1.247       .  A
O35         Cr43   2.045       .  S
O35          C36   1.274       .  A
C36        C1310   1.500       .  S
C36          O37   1.249       .  A
O37         Cr44   1.953       .  S
O38         Cr44   2.060       .  S
O38          C39   1.275       .  A
C39        C1342   1.484       .  S
C39          O40   1.251       .  A
O40         Cr45   1.951       .  S
O41         Cr45   2.037       .  S
O41          C42   1.268       .  A
C42        C1758   1.481       .  S
Cr43         O46   1.759       .  S
Cr44         O46   1.766       .  S
Cr45         O46   1.765       .  S
O47         Cr65   2.049       .  S
O47          C55   1.275       .  A
O48         Cr65   1.968       .  S
O48          C49   1.260       .  A
C49        C1278   1.500       .  S
C49          O50   1.278       .  A
O50         Cr66   2.058       .  S
O51         Cr66   1.968       .  S
O51          C52   1.260       .  A
C52        C1237   1.495       .  S
C52          O53   1.276       .  A
O53         Cr67   2.059       .  S
O54         Cr67   1.960       .  S
O54          C55   1.257       .  A
C55        C1205   1.480       .  S
O56         Cr65   1.952       .  S
O56          C64   1.254       .  A
O57         Cr65   2.051       .  S
O57          C58   1.273       .  A
C58        C1790   1.492       .  S
C58          O59   1.251       .  A
O59         Cr66   1.947       .  S
O60         Cr66   2.041       .  S
O60          C61   1.271       .  A
C61        C1502   1.479       .  S
C61          O62   1.248       .  A
O62         Cr67   1.940       .  S
O63         Cr67   2.043       .  S
O63          C64   1.273       .  A
C64        C1662   1.478       .  S
Cr65         O68   1.765       .  S
Cr66         O68   1.759       .  S
Cr67         O68   1.761       .  S
O69         Cr87   2.069       .  S
O69          C77   1.282       .  A
O70         Cr87   1.958       .  S
O70          C71   1.256       .  A
C71        C1470   1.486       .  S
C71          O72   1.276       .  A
O72         Cr88   2.058       .  S
O73         Cr88   1.954       .  S
O73          C74   1.249   1_565  A
C74        C1173   1.507       .  S
C74          O75   1.279   1_545  A
O75         Cr89   2.078       .  S
O76         Cr89   1.961       .  S
O76          C77   1.260       .  A
C77        C1077   1.490       .  S
O78         Cr87   1.949       .  S
O78          C86   1.254       .  A
O79         Cr87   2.076       .  S
O79          C80   1.277       .  A
C80        C1630   1.496       .  S
C80          O81   1.241       .  A
O81         Cr88   1.932       .  S
O82         Cr88   2.046       .  S
O82          C83   1.275       .  A
C83        C1141   1.476       .  S
C83          O84   1.254       .  A
O84         Cr89   1.942       .  S
O85         Cr89   2.069       .  S
O85          C86   1.276       .  A
C86        C1118   1.499       .  S
Cr87         O90   1.755       .  S
Cr88         O90   1.749       .  S
Cr89         O90   1.767       .  S
C91          C92   1.425       .  A
C91          C96   1.396       .  A
C91        C1333   1.494       .  S
C92          C93   1.423       .  A
C92        C1269   1.504       .  S
C93          C94   1.419       .  A
C93          H98   1.083       .  S
C94          C95   1.417       .  A
C94        C1182   1.502       .  S
C95          C96   1.394       .  A
C95        C1045   1.486       .  S
C96          H97   1.087       .  S
O99        Cr117   2.081       .  S
O99         C107   1.281       .  A
O100       Cr117   1.974       .  S
O100        C101   1.261   1_545  A
C101       C1566   1.504       .  S
C101        O102   1.277   1_565  A
O102       Cr118   2.063       .  S
O103       Cr118   1.949       .  S
O103        C104   1.251   1_556  A
C104        C926   1.503       .  S
C104        O105   1.281   1_554  A
O105       Cr119   2.078       .  S
O106       Cr119   1.947       .  S
O106        C107   1.249       .  A
C107       C1013   1.502       .  S
O108       Cr117   1.935       .  S
O108        C116   1.249       .  A
O109       Cr117   2.063       .  S
O109        C110   1.279       .  A
C110        C958   1.494       .  S
C110        O111   1.251       .  A
O111       Cr118   1.933       .  S
O112       Cr118   2.062       .  S
O112        C113   1.275       .  A
C113        C990   1.484       .  S
C113        O114   1.248       .  A
O114       Cr119   1.942       .  S
O115       Cr119   2.070       .  S
O115        C116   1.276       .  A
C116       C1054   1.486       .  S
Cr117       O120   1.758       .  S
Cr118       O120   1.745       .  S
Cr119       O120   1.752       .  S
C121        C122   1.421       .  A
C121        C126   1.423       .  A
C121       C1022   1.506       .  S
C122        C123   1.391   1_556  A
C122       C1301   1.484       .  S
C123        C124   1.393       .  A
C123        H128   1.087       .  S
C124        C125   1.414       .  A
C124        C894   1.482       .  S
C125        C126   1.421   1_554  A
C125        C853   1.500       .  S
C126        H127   1.081       .  S
C129        C130   1.413       .  A
C129        C134   1.393       .  A
C129       C1150   1.488       .  S
C130        C131   1.419   1_565  A
C130        C830   1.493       .  S
C131        C132   1.422       .  A
C131        H136   1.081       .  S
C132        C133   1.421       .  A
C132        C798   1.507       .  S
C133        C134   1.392   1_545  A
C133        C949   1.485       .  S
C134        H135   1.087       .  S
C137        C138   1.418       .  A
C137        C142   1.397       .  A
C137        C757   1.483       .  S
C138        C139   1.416       .  A
C138        C670   1.498   1_655  S
C139        C140   1.419       .  A
C139        H144   1.084       .  S
C140        C141   1.419       .  A
C140        C702   1.493       .  S
C141        C142   1.393       .  A
C141        C725   1.489       .  S
C142        H143   1.087       .  S
C145        C146   1.418       .  A
C145        C150   1.388       .  A
C145       C1109   1.487       .  S
C146        C147   1.423       .  A
C146       C1214   1.495       .  S
C147        C148   1.420       .  A
C147        H152   1.082       .  S
C148        C149   1.414       .  A
C148        C597   1.507       .  S
C149        C150   1.393       .  A
C149        C629   1.472       .  S
C150        H151   1.087       .  S
C153        C154   1.416       .  A
C153        C158   1.394       .  A
C153        C574   1.485       .  S
C154        C155   1.416       .  A
C154       C1374   1.494       .  S
C155        C156   1.417       .  A
C155        H160   1.084       .  S
C156        C157   1.420       .  A
C156       C1246   1.494       .  S
C157        C158   1.391       .  A
C157        C533   1.485       .  S
C158        H159   1.087       .  S
O161       Cr179   2.064       .  S
O161        C169   1.278       .  A
O162       Cr179   1.961       .  S
O162        C163   1.258       .  A
C163        C510   1.487       .  S
C163        O164   1.280       .  A
O164       Cr180   2.071       .  S
O165       Cr180   1.955       .  S
O165        C166   1.256       .  A
C166       C1717   1.489       .  S
C166        O167   1.279       .  A
O167       Cr181   2.065       .  S
O168       Cr181   1.963       .  S
O168        C169   1.255       .  A
C169        C606   1.494   1_655  S
O170       Cr179   1.948       .  S
O170        C178   1.254       .  A
O171       Cr179   2.080       .  S
O171        C172   1.277       .  A
C172        C542   1.497       .  S
C172        O173   1.243       .  A
O173       Cr180   1.944       .  S
O174       Cr180   2.050       .  S
O174        C175   1.272       .  A
C175       C1534   1.495       .  S
C175        O176   1.246       .  A
O176       Cr181   1.945       .  S
O177       Cr181   2.056       .  S
O177        C178   1.278       .  A
C178        C734   1.486       .  S
Cr179       O182   1.763       .  S
Cr180       O182   1.750       .  S
Cr181       O182   1.755       .  S
O183       Cr201   2.056       .  S
O183        C191   1.277       .  A
O184       Cr201   1.947   1_655  S
O184        C185   1.247       .  A
C185       C1438   1.487       .  S
C185        O186   1.274       .  A
O186       Cr202   2.054   1_655  S
O187       Cr202   1.952       .  S
O187        C188   1.256   1_565  A
C188        C446   1.489       .  S
C188        O189   1.281       .  A
O189       Cr203   2.066   1_545  S
O190       Cr203   1.962       .  S
O190        C191   1.257       .  A
C191        C821   1.488       .  S
O192       Cr201   1.937       .  S
O192        C200   1.249       .  A
O193       Cr201   2.058       .  S
O193        C194   1.277       .  A
C194        C766   1.483       .  S
C194        O195   1.251       .  A
O195       Cr202   1.940       .  S
O196       Cr202   2.050       .  S
O196        C197   1.272       .  A
C197        C469   1.467       .  S
C197        O198   1.251       .  A
O198       Cr203   1.946       .  S
O199       Cr203   2.059       .  S
O199        C200   1.275       .  A
C200        C638   1.490       .  S
Cr201       O204   1.743       .  S
Cr202       O204   1.761       .  S
Cr203       O204   1.750       .  S
O205       Cr223   2.055       .  S
O205        C213   1.277       .  A
O206       Cr223   1.949       .  S
O206        C207   1.245   1_554  A
C207       C1694   1.514       .  S
C207        O208   1.279   1_556  A
O208       Cr224   2.086       .  S
O209       Cr224   1.965       .  S
O209        C210   1.261       .  A
C210        C382   1.496   1_655  S
C210        O211   1.279       .  A
O211       Cr225   2.064       .  S
O212       Cr225   1.954       .  S
O212        C213   1.255       .  A
C213        C693   1.483       .  S
O214       Cr223   1.948       .  S
O214        C222   1.251       .  A
O215       Cr223   2.072       .  S
O215        C216   1.280       .  A
C216        C885   1.486       .  S
C216        O217   1.249       .  A
O217       Cr224   1.935       .  S
O218       Cr224   2.067       .  S
O218        C219   1.277       .  A
C219        C405   1.480       .  S
C219        O220   1.244       .  A
O220       Cr225   1.936       .  S
O221       Cr225   2.040       .  S
O221        C222   1.273       .  A
C222        C565   1.495       .  S
Cr223       O226   1.750       .  S
Cr224       O226   1.762       .  S
Cr225       O226   1.748       .  S
C227        C228   1.412   1_545  A
C227        C232   1.392       .  A
C227        C478   1.478       .  S
C228        C229   1.423   1_565  A
C228       C1086   1.505       .  S
C229        C230   1.428       .  A
C229        H234   1.082       .  S
C230        C231   1.421       .  A
C230        C917   1.502       .  S
C231        C232   1.389       .  A
C231        C341   1.490       .  S
C232        H233   1.087       .  S
O235       Cr253   2.020   1_655  S
O235        C243   1.273       .  A
O236       Cr253   1.994       .  S
O236        C237   1.263   1_545  A
C237        C661   1.497       .  S
C237        O238   1.272   1_565  A
O238       Cr254   2.020       .  S
O239       Cr254   1.994       .  S
O239        C240   1.264   1_554  A
C240        C789   1.502       .  S
C240        O241   1.274   1_556  A
O241       Cr255   2.020       .  S
O242       Cr255   1.988   1_655  S
O242        C243   1.263       .  A
C243        C862   1.491       .  S
O244       Cr253   1.974       .  S
O244        C252   1.255       .  A
O245       Cr253   2.023       .  S
O245        C246   1.264       .  A
C246        C350   1.492       .  S
C246        O247   1.255       .  A
O247       Cr254   1.981       .  S
O248       Cr254   2.019       .  S
O248        C249   1.263       .  A
C249        C277   1.483       .  S
C249        O250   1.254       .  A
O250       Cr255   1.980       .  S
O251       Cr255   2.021       .  S
O251        C252   1.266       .  A
C252        C309   1.482       .  S
Cr253       O256   1.778       .  S
Cr254       O256   1.777       .  S
Cr255       O256   1.783       .  S
C257        C258   1.412       .  A
C257        C262   1.420       .  A
C257        C501   1.499       .  S
C258        C259   1.388       .  A
C258        C414   1.476       .  S
C259        C260   1.387       .  A
C259        H264   1.088       .  S
C260        C261   1.419       .  A
C260        C318   1.480       .  S
C261        C262   1.425       .  A
C261        C437   1.502   1_655  S
C262        H263   1.083       .  S
C265        C266   1.415       .  A
C265        C270   1.412       .  A
C265       C1406   1.496       .  S
C266        C267   1.397       .  A
C266        C981   1.483       .  S
C267        C268   1.398       .  A
C267        H272   1.087       .  S
C268        C269   1.419   1_556  A
C268        C286   1.495   1_556  S
C269        C270   1.415   1_554  A
C269        C373   1.487       .  S
C270        H271   1.083       .  S
C273        C274   1.407       .  A
C273        C278   1.412       .  A
C273        H283   1.084       .  S
C274        C275   1.416       .  A
C274        C279   1.492       .  S
C275        C276   1.410       .  A
C275        C280   1.521       .  S
C276        C277   1.406       .  A
C276        H281   1.083       .  S
C277        C278   1.413       .  A
C278        C282   1.515       .  S
C279        C284   1.414       .  A
C279        C288   1.403       .  A
C280        F296   1.383       .  S
C280        F297   1.380       .  S
C280        F298   1.384       .  S
C282        F293   1.385   1_554  S
C282        F294   1.383   1_554  S
C282        F295   1.383       .  S
C284        C285   1.410       .  A
C284        C289   1.520       .  S
C285        C286   1.411       .  A
C285        H290   1.084       .  S
C286        C287   1.418       .  A
C287        C288   1.410       .  A
C287        C291   1.512   1_554  S
C288        H292   1.083       .  S
C289        F302   1.385       .  S
C289        F303   1.383       .  S
C289        F304   1.380       .  S
C291        F299   1.385       .  S
C291        F300   1.382       .  S
C291        F301   1.378       .  S
C305        C306   1.410       .  A
C305        C310   1.416       .  A
C305        H315   1.080       .  S
C306        C307   1.410       .  A
C306        C311   1.486       .  S
C307        C308   1.403       .  A
C307        C312   1.522       .  S
C308        C309   1.407       .  A
C308        H313   1.062       .  S
C309        C310   1.412       .  A
C310        C314   1.515       .  S
C311        C316   1.419       .  A
C311        C320   1.401   1_455  A
C312        F328   1.383       .  S
C312        F329   1.380       .  S
C312        F330   1.382       .  S
C314        F325   1.384   1_455  S
C314        F326   1.383   1_455  S
C314        F327   1.382       .  S
C316        C317   1.408       .  A
C316        C321   1.519       .  S
C317        C318   1.405   1_455  A
C317        H322   1.085       .  S
C318        C319   1.421       .  A
C319        C320   1.403       .  A
C319        C323   1.520       .  S
C320        H324   1.085       .  S
C321        F334   1.383       .  S
C321        F335   1.383       .  S
C321        F336   1.382       .  S
C323        F331   1.384       .  S
C323        F332   1.382       .  S
C323        F333   1.383       .  S
C337        C338   1.403       .  A
C337        C342   1.409       .  A
C337        H347   1.083       .  S
C338        C339   1.414       .  A
C338        C343   1.489       .  S
C339        C340   1.409       .  A
C339        C344   1.518       .  S
C340        C341   1.408       .  A
C340        H345   1.083       .  S
C341        C342   1.417       .  A
C342        C346   1.516   1_545  S
C343        C348   1.413       .  A
C343        C352   1.408       .  A
C344        F360   1.383       .  S
C344        F361   1.382       .  S
C344        F362   1.385       .  S
C346        F357   1.384       .  S
C346        F358   1.383       .  S
C346        F359   1.381       .  S
C348        C349   1.402       .  A
C348        C353   1.521       .  S
C349        C350   1.407       .  A
C349        H354   1.080       .  S
C350        C351   1.421       .  A
C351        C352   1.415       .  A
C351        C355   1.515       .  S
C352        H356   1.085       .  S
C353        F366   1.384       .  S
C353        F367   1.383       .  S
C353        F368   1.381       .  S
C355        F363   1.383   1_545  S
C355        F364   1.380       .  S
C355        F365   1.384       .  S
C369        C370   1.407       .  A
C369        C374   1.406   1_554  A
C369        H379   1.083   1_554  S
C370        C371   1.424       .  A
C370        C375   1.508       .  S
C371        C372   1.412       .  A
C371        C376   1.518       .  S
C372        C373   1.403       .  A
C372        H377   1.084       .  S
C373        C374   1.421   1_554  A
C374        C378   1.522       .  S
C375        C380   1.423       .  A
C375        C384   1.405       .  A
C376        F392   1.382       .  S
C376        F393   1.383       .  S
C376        F394   1.385       .  S
C378        F389   1.383       .  S
C378        F390   1.383       .  S
C378        F391   1.380       .  S
C380        C381   1.410       .  A
C380        C385   1.517       .  S
C381        C382   1.406       .  A
C381        H386   1.085       .  S
C382        C383   1.421       .  A
C383        C384   1.410       .  A
C383        C387   1.513       .  S
C384        H388   1.080       .  S
C385        F398   1.384       .  S
C385        F399   1.383   1_554  S
C385        F400   1.383       .  S
C387        F395   1.376       .  S
C387        F396   1.382       .  S
C387        F397   1.385       .  S
C401        C402   1.410       .  A
C401        C406   1.413       .  A
C401        H411   1.083       .  S
C402        C403   1.411       .  A
C402        C407   1.483       .  S
C403        C404   1.401       .  A
C403        C408   1.522       .  S
C404        C405   1.408       .  A
C404        H409   1.084       .  S
C405        C406   1.410       .  A
C406        C410   1.513       .  S
C407        C412   1.418       .  A
C407        C416   1.397       .  A
C408        F424   1.382       .  S
C408        F425   1.382       .  S
C408        F426   1.385       .  S
C410        F421   1.385       .  S
C410        F422   1.383       .  S
C410        F423   1.383       .  S
C412        C413   1.410       .  A
C412        C417   1.518       .  S
C413        C414   1.402       .  A
C413        H418   1.083       .  S
C414        C415   1.420       .  A
C415        C416   1.398       .  A
C415        C419   1.520   1_655  S
C416        H420   1.085   1_655  S
C417        F430   1.385       .  S
C417        F431   1.382       .  S
C417        F432   1.382       .  S
C419        F427   1.383       .  S
C419        F428   1.382       .  S
C419        F429   1.383       .  S
C433        C434   1.402       .  A
C433        C438   1.411       .  A
C433        H443   1.085       .  S
C434        C435   1.419   1_455  A
C434        C439   1.498       .  S
C435        C436   1.410       .  A
C435        C440   1.520       .  S
C436        C437   1.406   1_655  A
C436        H441   1.080       .  S
C437        C438   1.424       .  A
C438        C442   1.518       .  S
C439        C444   1.419       .  A
C439        C448   1.402       .  A
C440        F456   1.382       .  S
C440        F457   1.383   1_655  S
C440        F458   1.385       .  S
C442        F453   1.385       .  S
C442        F454   1.383       .  S
C442        F455   1.381       .  S
C444        C445   1.413       .  A
C444        C449   1.519       .  S
C445        C446   1.407       .  A
C445        H450   1.083       .  S
C446        C447   1.421       .  A
C447        C448   1.409       .  A
C447        C451   1.517   1_455  S
C448        H452   1.084   1_455  S
C449        F462   1.385       .  S
C449        F463   1.382       .  S
C449        F464   1.383       .  S
C451        F459   1.384   1_655  S
C451        F460   1.384       .  S
C451        F461   1.384       .  S
C465        C466   1.409       .  A
C465        C470   1.410       .  A
C465        H475   1.083       .  S
C466        C467   1.414   1_565  A
C466        C471   1.483       .  S
C467        C468   1.401   1_545  A
C467        C472   1.521       .  S
C468        C469   1.403       .  A
C468        H473   1.084   1_565  S
C469        C470   1.409       .  A
C470        C474   1.515       .  S
C471        C476   1.420       .  A
C471        C480   1.397   1_565  A
C472        F488   1.381       .  S
C472        F489   1.383   1_545  S
C472        F490   1.385       .  S
C474        F485   1.385       .  S
C474        F486   1.383       .  S
C474        F487   1.383       .  S
C476        C477   1.410       .  A
C476        C481   1.518       .  S
C477        C478   1.402   1_565  A
C477        H482   1.083       .  S
C478        C479   1.419       .  A
C479        C480   1.396       .  A
C479        C483   1.517       .  S
C480        H484   1.084       .  S
C481        F494   1.385       .  S
C481        F495   1.382       .  S
C481        F496   1.383       .  S
C483        F491   1.383       .  S
C483        F492   1.383       .  S
C483        F493   1.382       .  S
C497        C498   1.405       .  A
C497        C502   1.416       .  A
C497        H507   1.083       .  S
C498        C499   1.419       .  A
C498        C503   1.500       .  S
C499        C500   1.410       .  A
C499        C504   1.520       .  S
C500        C501   1.404       .  A
C500        H505   1.080       .  S
C501        C502   1.420       .  A
C502        C506   1.518       .  S
C503        C508   1.419       .  A
C503        C512   1.404       .  A
C504        F520   1.382       .  S
C504        F521   1.383       .  S
C504        F522   1.385   1_655  S
C506        F517   1.384       .  S
C506        F518   1.382       .  S
C506        F519   1.383       .  S
C508        C509   1.415       .  A
C508        C513   1.520       .  S
C509        C510   1.407       .  A
C509        H514   1.084       .  S
C510        C511   1.417       .  A
C511        C512   1.410       .  A
C511        C515   1.515       .  S
C512        H516   1.084       .  S
C513        F526   1.385       .  S
C513        F527   1.382       .  S
C513        F528   1.383       .  S
C515        F523   1.384       .  S
C515        F524   1.383       .  S
C515        F525   1.382       .  S
C529        C530   1.402       .  A
C529        C534   1.407       .  A
C529        H539   1.085       .  S
C530        C531   1.415       .  A
C530        C535   1.489       .  S
C531        C532   1.408       .  A
C531        C536   1.520       .  S
C532        C533   1.407       .  A
C532        H537   1.080       .  S
C533        C534   1.419       .  A
C534        C538   1.515       .  S
C535        C540   1.420       .  A
C535        C544   1.392       .  A
C536        F552   1.382       .  S
C536        F553   1.382       .  S
C536        F554   1.385       .  S
C538        F549   1.383       .  S
C538        F550   1.384       .  S
C538        F551   1.381       .  S
C540        C541   1.418       .  A
C540        C545   1.518       .  S
C541        C542   1.406       .  A
C541        H546   1.083       .  S
C542        C543   1.434       .  A
C543        C544   1.402       .  A
C543        C547   1.526       .  S
C544        H548   1.083       .  S
C545        F558   1.384       .  S
C545        F559   1.382       .  S
C545        F560   1.382       .  S
C547        F555   1.383       .  S
C547        F556   1.382       .  S
C547        F557   1.385       .  S
C561        C562   1.394       .  A
C561        C566   1.404       .  A
C561        H571   1.084       .  S
C562        C563   1.416       .  A
C562        C567   1.484       .  S
C563        C564   1.411       .  A
C563        C568   1.519       .  S
C564        C565   1.407       .  A
C564        H569   1.081       .  S
C565        C566   1.430       .  A
C566        C570   1.520       .  S
C567        C572   1.418       .  A
C567        C576   1.397       .  A
C568        F584   1.382       .  S
C568        F585   1.382       .  S
C568        F586   1.385       .  S
C570        F581   1.382       .  S
C570        F582   1.385       .  S
C570        F583   1.384       .  S
C572        C573   1.411       .  A
C572        C577   1.518       .  S
C573        C574   1.403       .  A
C573        H578   1.081       .  S
C574        C575   1.422       .  A
C575        C576   1.402       .  A
C575        C579   1.518       .  S
C576        H580   1.085       .  S
C577        F590   1.384       .  S
C577        F591   1.383       .  S
C577        F592   1.382       .  S
C579        F587   1.383       .  S
C579        F588   1.383       .  S
C579        F589   1.384       .  S
C593        C594   1.406       .  A
C593        C598   1.417       .  A
C593        H603   1.082       .  S
C594        C595   1.420       .  A
C594        C599   1.506       .  S
C595        C596   1.413       .  A
C595        C600   1.520       .  S
C596        C597   1.406       .  A
C596        H601   1.077       .  S
C597        C598   1.421       .  A
C598        C602   1.518       .  S
C599        C604   1.421       .  A
C599        C608   1.407       .  A
C600        F616   1.381       .  S
C600        F617   1.383       .  S
C600        F618   1.385       .  S
C602        F613   1.385       .  S
C602        F614   1.381       .  S
C602        F615   1.383       .  S
C604        C605   1.414       .  A
C604        C609   1.520       .  S
C605        C606   1.406       .  A
C605        H610   1.083       .  S
C606        C607   1.418       .  A
C607        C608   1.415       .  A
C607        C611   1.516       .  S
C608        H612   1.083       .  S
C609        F622   1.385       .  S
C609        F623   1.381       .  S
C609        F624   1.383       .  S
C611        F619   1.384       .  S
C611        F620   1.383       .  S
C611        F621   1.383       .  S
C625        C626   1.399       .  A
C625        C630   1.399       .  A
C625        H635   1.085       .  S
C626        C627   1.416       .  A
C626        C631   1.482       .  S
C627        C628   1.408       .  A
C627        C632   1.517       .  S
C628        C629   1.404       .  A
C628        H633   1.083       .  S
C629        C630   1.420       .  A
C630        C634   1.522       .  S
C631        C636   1.409       .  A
C631        C640   1.408       .  A
C632        F648   1.382       .  S
C632        F649   1.382       .  S
C632        F650   1.385       .  S
C634        F645   1.383       .  S
C634        F646   1.384       .  S
C634        F647   1.381       .  S
C636        C637   1.400       .  A
C636        C641   1.523       .  S
C637        C638   1.412       .  A
C637        H642   1.083       .  S
C638        C639   1.416       .  A
C639        C640   1.414       .  A
C639        C643   1.515       .  S
C640        H644   1.083       .  S
C641        F654   1.384       .  S
C641        F655   1.382       .  S
C641        F656   1.382       .  S
C643        F651   1.381       .  S
C643        F652   1.383       .  S
C643        F653   1.385       .  S
C657        C658   1.399       .  A
C657        C662   1.407       .  A
C657        H667   1.083       .  S
C658        C659   1.422       .  A
C658        C663   1.502       .  S
C659        C660   1.421       .  A
C659        C664   1.517   1_455  S
C660        C661   1.406       .  A
C660        H665   1.083       .  S
C661        C662   1.423       .  A
C662        C666   1.518       .  S
C663        C668   1.420       .  A
C663        C672   1.405   1_455  A
C664        F680   1.382       .  S
C664        F681   1.382   1_655  S
C664        F682   1.384       .  S
C666        F677   1.385       .  S
C666        F678   1.379       .  S
C666        F679   1.382       .  S
C668        C669   1.415       .  A
C668        C673   1.519       .  S
C669        C670   1.406       .  A
C669        H674   1.083       .  S
C670        C671   1.420   1_455  A
C671        C672   1.411       .  A
C671        C675   1.517       .  S
C672        H676   1.084       .  S
C673        F686   1.385       .  S
C673        F687   1.381       .  S
C673        F688   1.382       .  S
C675        F683   1.383       .  S
C675        F684   1.382       .  S
C675        F685   1.383       .  S
C689        C690   1.401       .  A
C689        C694   1.407       .  A
C689        H699   1.083       .  S
C690        C691   1.420       .  A
C690        C695   1.495       .  S
C691        C692   1.414       .  A
C691        C696   1.517       .  S
C692        C693   1.404       .  A
C692        H697   1.083       .  S
C693        C694   1.417       .  A
C694        C698   1.515       .  S
C695        C700   1.416       .  A
C695        C704   1.404       .  A
C696        F712   1.382       .  S
C696        F713   1.382       .  S
C696        F714   1.385       .  S
C698        F709   1.385       .  S
C698        F710   1.382       .  S
C698        F711   1.383       .  S
C700        C701   1.410       .  A
C700        C705   1.519       .  S
C701        C702   1.405       .  A
C701        H706   1.083       .  S
C702        C703   1.421       .  A
C703        C704   1.410       .  A
C703        C707   1.518   1_655  S
C704        H708   1.085       .  S
C705        F718   1.384       .  S
C705        F719   1.382       .  S
C705        F720   1.382       .  S
C707        F715   1.383       .  S
C707        F716   1.381       .  S
C707        F717   1.384       .  S
C721        C722   1.401       .  A
C721        C726   1.409       .  A
C721        H731   1.083       .  S
C722        C723   1.416   1_655  A
C722        C727   1.490       .  S
C723        C724   1.408       .  A
C723        C728   1.520       .  S
C724        C725   1.406   1_455  A
C724        H729   1.081       .  S
C725        C726   1.421       .  A
C726        C730   1.519       .  S
C727        C732   1.421       .  A
C727        C736   1.397       .  A
C728        F744   1.382       .  S
C728        F745   1.383       .  S
C728        F746   1.384       .  S
C730        F741   1.385       .  S
C730        F742   1.379       .  S
C730        F743   1.382       .  S
C732        C733   1.413       .  A
C732        C737   1.518       .  S
C733        C734   1.403       .  A
C733        H738   1.082       .  S
C734        C735   1.425       .  A
C735        C736   1.403       .  A
C735        C739   1.522       .  S
C736        H740   1.083       .  S
C737        F750   1.385       .  S
C737        F751   1.382       .  S
C737        F752   1.382       .  S
C739        F747   1.382       .  S
C739        F748   1.383       .  S
C739        F749   1.385       .  S
C753        C754   1.403       .  A
C753        C758   1.409       .  A
C753        H763   1.083       .  S
C754        C755   1.413   1_455  A
C754        C759   1.483       .  S
C755        C756   1.403       .  A
C755        C760   1.520       .  S
C756        C757   1.407       .  A
C756        H761   1.082       .  S
C757        C758   1.417   1_655  A
C758        C762   1.517       .  S
C759        C764   1.418       .  A
C759        C768   1.395   1_455  A
C760        F776   1.382       .  S
C760        F777   1.384       .  S
C760        F778   1.382       .  S
C762        F773   1.384       .  S
C762        F774   1.379       .  S
C762        F775   1.383       .  S
C764        C765   1.412       .  A
C764        C769   1.519       .  S
C765        C766   1.404       .  A
C765        H770   1.083       .  S
C766        C767   1.425   1_455  A
C767        C768   1.402       .  A
C767        C771   1.522       .  S
C768        H772   1.084       .  S
C769        F782   1.384       .  S
C769        F783   1.382       .  S
C769        F784   1.383   1_455  S
C771        F779   1.383   1_655  S
C771        F780   1.383       .  S
C771        F781   1.385       .  S
C785        C786   1.400       .  A
C785        C790   1.407       .  A
C785        H795   1.084       .  S
C786        C787   1.424       .  A
C786        C791   1.502       .  S
C787        C788   1.418       .  A
C787        C792   1.517       .  S
C788        C789   1.408       .  A
C788        H793   1.084       .  S
C789        C790   1.427       .  A
C790        C794   1.521   1_545  S
C791        C796   1.419       .  A
C791        C800   1.403       .  A
C792        F808   1.383       .  S
C792        F809   1.382       .  S
C792        F810   1.383       .  S
C794        F805   1.382   1_565  S
C794        F806   1.385       .  S
C794        F807   1.383       .  S
C796        C797   1.414       .  A
C796        C801   1.519       .  S
C797        C798   1.408       .  A
C797        H802   1.081       .  S
C798        C799   1.426       .  A
C799        C800   1.413       .  A
C799        C803   1.523   1_545  S
C800        H804   1.083   1_545  S
C801        F814   1.385       .  S
C801        F815   1.383       .  S
C801        F816   1.379       .  S
C803        F811   1.384       .  S
C803        F812   1.383       .  S
C803        F813   1.381       .  S
C817        C818   1.401       .  A
C817        C822   1.407       .  A
C817        H827   1.083       .  S
C818        C819   1.420       .  A
C818        C823   1.498       .  S
C819        C820   1.417       .  A
C819        C824   1.517       .  S
C820        C821   1.404       .  A
C820        H825   1.083       .  S
C821        C822   1.418       .  A
C822        C826   1.515       .  S
C823        C828   1.418       .  A
C823        C832   1.404       .  A
C824        F840   1.382       .  S
C824        F841   1.382       .  S
C824        F842   1.385   1_455  S
C826        F837   1.385       .  S
C826        F838   1.382       .  S
C826        F839   1.383       .  S
C828        C829   1.413       .  A
C828        C833   1.519       .  S
C829        C830   1.405       .  A
C829        H834   1.083       .  S
C830        C831   1.421   1_565  A
C831        C832   1.409   1_545  A
C831        C835   1.519       .  S
C832        H836   1.085   1_565  S
C833        F846   1.384       .  S
C833        F847   1.381       .  S
C833        F848   1.382       .  S
C835        F843   1.384       .  S
C835        F844   1.381       .  S
C835        F845   1.383       .  S
C849        C850   1.401       .  A
C849        C854   1.411       .  A
C849        H859   1.084       .  S
C850        C851   1.419       .  A
C850        C855   1.502       .  S
C851        C852   1.414   1_554  A
C851        C856   1.518   1_554  S
C852        C853   1.406   1_556  A
C852        H857   1.082       .  S
C853        C854   1.426       .  A
C854        C858   1.520       .  S
C855        C860   1.418       .  A
C855        C864   1.409       .  A
C856        F872   1.382       .  S
C856        F873   1.383       .  S
C856        F874   1.384       .  S
C858        F869   1.384       .  S
C858        F870   1.383       .  S
C858        F871   1.379       .  S
C860        C861   1.409       .  A
C860        C865   1.521       .  S
C861        C862   1.406       .  A
C861        H866   1.083       .  S
C862        C863   1.415       .  A
C863        C864   1.419       .  A
C863        C867   1.514       .  S
C864        H868   1.083       .  S
C865        F878   1.385       .  S
C865        F879   1.382       .  S
C865        F880   1.383       .  S
C867        F875   1.384       .  S
C867        F876   1.383       .  S
C867        F877   1.383       .  S
C881        C882   1.394       .  A
C881        C886   1.401       .  A
C881        H891   1.084       .  S
C882        C883   1.419       .  A
C882        C887   1.484       .  S
C883        C884   1.413       .  A
C883        C888   1.518       .  S
C884        C885   1.403       .  A
C884        H889   1.079       .  S
C885        C886   1.427       .  A
C886        C890   1.522       .  S
C887        C892   1.415   1_554  A
C887        C896   1.402       .  A
C888        F904   1.382       .  S
C888        F905   1.382   1_554  S
C888        F906   1.384       .  S
C890        F901   1.382   1_554  S
C890        F902   1.385   1_554  S
C890        F903   1.383       .  S
C892        C893   1.405       .  A
C892        C897   1.520       .  S
C893        C894   1.406   1_556  A
C893        H898   1.087       .  S
C894        C895   1.415       .  A
C895        C896   1.407       .  A
C895        C899   1.515       .  S
C896        H900   1.087       .  S
C897        F910   1.385       .  S
C897        F911   1.382       .  S
C897        F912   1.383       .  S
C899        F907   1.380       .  S
C899        F908   1.383       .  S
C899        F909   1.384       .  S
C913        C914   1.402       .  A
C913        C918   1.409       .  A
C913        H923   1.084       .  S
C914        C915   1.416       .  A
C914        C919   1.496       .  S
C915        C916   1.413       .  A
C915        C920   1.518       .  S
C916        C917   1.409       .  A
C916        H921   1.081       .  S
C917        C918   1.423       .  A
C918        C922   1.518   1_545  S
C919        C924   1.422       .  A
C919        C928   1.397       .  A
C920        F936   1.383       .  S
C920        F937   1.381       .  S
C920        F938   1.385       .  S
C922        F933   1.381       .  S
C922        F934   1.385       .  S
C922        F935   1.382       .  S
C924        C925   1.418       .  A
C924        C929   1.516       .  S
C925        C926   1.408       .  A
C925        H930   1.084       .  S
C926        C927   1.433       .  A
C927        C928   1.404       .  A
C927        C931   1.526       .  S
C928        H932   1.084       .  S
C929        F942   1.383       .  S
C929        F943   1.383       .  S
C929        F944   1.382       .  S
C931        F939   1.384       .  S
C931        F940   1.382       .  S
C931        F941   1.385       .  S
C945        C946   1.404       .  A
C945        C950   1.408   1_545  A
C945        H955   1.083   1_545  S
C946        C947   1.417       .  A
C946        C951   1.490       .  S
C947        C948   1.407       .  A
C947        C952   1.519       .  S
C948        C949   1.406       .  A
C948        H953   1.084       .  S
C949        C950   1.415   1_545  A
C950        C954   1.516       .  S
C951        C956   1.411       .  A
C951        C960   1.411       .  A
C952        F968   1.382       .  S
C952        F969   1.383       .  S
C952        F970   1.385       .  S
C954        F965   1.381       .  S
C954        F966   1.385       .  S
C954        F967   1.380       .  S
C956        C957   1.398       .  A
C956        C961   1.523       .  S
C957        C958   1.412       .  A
C957        H962   1.083       .  S
C958        C959   1.417       .  A
C959        C960   1.417       .  A
C959        C963   1.517       .  S
C960        H964   1.082       .  S
C961        F974   1.385       .  S
C961        F975   1.382       .  S
C961        F976   1.383       .  S
C963        F971   1.381       .  S
C963        F972   1.384       .  S
C963        F973   1.384       .  S
C977        C978   1.404       .  A
C977        C982   1.409       .  A
C977        H987   1.083       .  S
C978        C979   1.415   1_556  A
C978        C983   1.485       .  S
C979        C980   1.403       .  A
C979        C984   1.520       .  S
C980        C981   1.405   1_554  A
C980        H985   1.084       .  S
C981        C982   1.413       .  A
C982        C986   1.514       .  S
C983        C988   1.419       .  A
C983        C992   1.395       .  A
C984       F1000   1.382       .  S
C984       F1001   1.382       .  S
C984       F1002   1.385       .  S
C986        F997   1.384       .  S
C986        F998   1.381       .  S
C986        F999   1.383       .  S
C988        C989   1.413       .  A
C988        C993   1.518       .  S
C989        C990   1.403       .  A
C989        H994   1.083       .  S
C990        C991   1.426       .  A
C991        C992   1.402       .  A
C991        C995   1.523       .  S
C992        H996   1.083       .  S
C993       F1006   1.384       .  S
C993       F1007   1.382       .  S
C993       F1008   1.383       .  S
C995       F1003   1.381       .  S
C995       F1004   1.382   1_556  S
C995       F1005   1.385       .  S
C1009      C1010   1.394       .  A
C1009      C1014   1.405       .  A
C1009      H1019   1.083       .  S
C1010      C1011   1.418       .  A
C1010      C1015   1.495       .  S
C1011      C1012   1.419       .  A
C1011      C1016   1.516       .  S
C1012      C1013   1.408       .  A
C1012      H1017   1.083       .  S
C1013      C1014   1.436       .  A
C1014      C1018   1.527       .  S
C1015      C1020   1.417       .  A
C1015      C1024   1.402       .  A
C1016      F1032   1.382       .  S
C1016      F1033   1.381       .  S
C1016      F1034   1.384       .  S
C1018      F1029   1.385       .  S
C1018      F1030   1.382   1_556  S
C1018      F1031   1.377       .  S
C1020      C1021   1.412       .  A
C1020      C1025   1.520       .  S
C1021      C1022   1.408       .  A
C1021      H1026   1.079       .  S
C1022      C1023   1.423       .  A
C1023      C1024   1.412       .  A
C1023      C1027   1.518   1_556  S
C1024      H1028   1.083       .  S
C1025      F1038   1.385       .  S
C1025      F1039   1.383       .  S
C1025      F1040   1.381       .  S
C1027      F1035   1.385       .  S
C1027      F1036   1.383       .  S
C1027      F1037   1.379       .  S
C1041      C1042   1.402       .  A
C1041      C1046   1.407       .  A
C1041      H1051   1.083       .  S
C1042      C1043   1.418       .  A
C1042      C1047   1.490       .  S
C1043      C1044   1.407       .  A
C1043      C1048   1.518       .  S
C1044      C1045   1.404       .  A
C1044      H1049   1.082       .  S
C1045      C1046   1.416       .  A
C1046      C1050   1.515       .  S
C1047      C1052   1.414       .  A
C1047      C1056   1.409       .  A
C1048      F1064   1.381       .  S
C1048      F1065   1.383       .  S
C1048      F1066   1.385       .  S
C1050      F1061   1.381       .  S
C1050      F1062   1.385       .  S
C1050      F1063   1.382       .  S
C1052      C1053   1.403       .  A
C1052      C1057   1.522       .  S
C1053      C1054   1.409       .  A
C1053      H1058   1.083       .  S
C1054      C1055   1.413       .  A
C1055      C1056   1.413       .  A
C1055      C1059   1.514       .  S
C1056      H1060   1.083       .  S
C1057      F1070   1.385       .  S
C1057      F1071   1.381       .  S
C1057      F1072   1.383       .  S
C1059      F1067   1.384       .  S
C1059      F1068   1.382       .  S
C1059      F1069   1.383       .  S
C1073      C1074   1.406       .  A
C1073      C1078   1.414       .  A
C1073      H1083   1.083       .  S
C1074      C1075   1.420       .  A
C1074      C1079   1.502       .  S
C1075      C1076   1.414       .  A
C1075      C1080   1.521       .  S
C1076      C1077   1.406       .  A
C1076      H1081   1.083       .  S
C1077      C1078   1.416       .  A
C1078      C1082   1.516       .  S
C1079      C1084   1.419       .  A
C1079      C1088   1.403       .  A
C1080      F1096   1.381       .  S
C1080      F1097   1.383       .  S
C1080      F1098   1.383       .  S
C1082      F1093   1.384       .  S
C1082      F1094   1.383       .  S
C1082      F1095   1.382       .  S
C1084      C1085   1.412   1_565  A
C1084      C1089   1.519   1_565  S
C1085      C1086   1.405   1_545  A
C1085      H1090   1.080       .  S
C1086      C1087   1.422       .  A
C1087      C1088   1.414       .  A
C1087      C1091   1.516       .  S
C1088      H1092   1.083       .  S
C1089      F1102   1.385       .  S
C1089      F1103   1.382       .  S
C1089      F1104   1.383   1_545  S
C1091      F1099   1.377       .  S
C1091      F1100   1.383       .  S
C1091      F1101   1.385       .  S
C1105      C1106   1.402       .  A
C1105      C1110   1.408       .  A
C1105      H1115   1.084       .  S
C1106      C1107   1.416       .  A
C1106      C1111   1.492       .  S
C1107      C1108   1.410       .  A
C1107      C1112   1.519       .  S
C1108      C1109   1.405       .  A
C1108      H1113   1.082       .  S
C1109      C1110   1.423       .  A
C1110      C1114   1.519       .  S
C1111      C1116   1.410       .  A
C1111      C1120   1.409       .  A
C1112      F1128   1.383       .  S
C1112      F1129   1.382       .  S
C1112      F1130   1.384       .  S
C1114      F1125   1.381       .  S
C1114      F1126   1.383       .  S
C1114      F1127   1.383       .  S
C1116      C1117   1.403       .  A
C1116      C1121   1.522       .  S
C1117      C1118   1.413       .  A
C1117      H1122   1.083       .  S
C1118      C1119   1.419       .  A
C1119      C1120   1.419       .  A
C1119      C1123   1.517       .  S
C1120      H1124   1.083       .  S
C1121      F1134   1.384       .  S
C1121      F1135   1.382       .  S
C1121      F1136   1.382       .  S
C1123      F1131   1.385       .  S
C1123      F1132   1.381       .  S
C1123      F1133   1.380       .  S
C1137      C1138   1.396       .  A
C1137      C1142   1.397       .  A
C1137      H1147   1.085       .  S
C1138      C1139   1.421       .  A
C1138      C1143   1.481       .  S
C1139      C1140   1.413       .  A
C1139      C1144   1.521   1_565  S
C1140      C1141   1.403       .  A
C1140      H1145   1.083   1_565  S
C1141      C1142   1.422       .  A
C1142      C1146   1.519       .  S
C1143      C1148   1.416       .  A
C1143      C1152   1.398       .  A
C1144      F1160   1.383       .  S
C1144      F1161   1.380       .  S
C1144      F1162   1.385       .  S
C1146      F1157   1.381       .  S
C1146      F1158   1.384       .  S
C1146      F1159   1.379       .  S
C1148      C1149   1.410       .  A
C1148      C1153   1.518       .  S
C1149      C1150   1.405       .  A
C1149      H1154   1.080   1_565  S
C1150      C1151   1.420       .  A
C1151      C1152   1.398       .  A
C1151      C1155   1.515       .  S
C1152      H1156   1.085       .  S
C1153      F1166   1.384   1_565  S
C1153      F1167   1.383       .  S
C1153      F1168   1.380   1_565  S
C1155      F1163   1.384       .  S
C1155      F1164   1.383       .  S
C1155      F1165   1.383       .  S
C1169      C1170   1.396       .  A
C1169      C1174   1.408       .  A
C1169      H1179   1.083       .  S
C1170      C1171   1.419       .  A
C1170      C1175   1.500       .  S
C1171      C1172   1.421       .  A
C1171      C1176   1.517       .  S
C1172      C1173   1.409       .  A
C1172      H1177   1.083       .  S
C1173      C1174   1.434       .  A
C1174      C1178   1.525       .  S
C1175      C1180   1.418       .  A
C1175      C1184   1.406       .  A
C1176      F1192   1.383       .  S
C1176      F1193   1.380       .  S
C1176      F1194   1.384       .  S
C1178      F1189   1.381       .  S
C1178      F1190   1.385       .  S
C1178      F1191   1.383       .  S
C1180      C1181   1.412       .  A
C1180      C1185   1.520       .  S
C1181      C1182   1.406       .  A
C1181      H1186   1.080       .  S
C1182      C1183   1.423       .  A
C1183      C1184   1.415       .  A
C1183      C1187   1.521       .  S
C1184      H1188   1.084       .  S
C1185      F1198   1.385       .  S
C1185      F1199   1.382       .  S
C1185      F1200   1.380       .  S
C1187      F1195   1.385       .  S
C1187      F1196   1.382       .  S
C1187      F1197   1.382       .  S
C1201      C1202   1.406       .  A
C1201      C1206   1.412       .  A
C1201      H1211   1.083       .  S
C1202      C1203   1.417       .  A
C1202      C1207   1.494       .  S
C1203      C1204   1.410       .  A
C1203      C1208   1.520       .  S
C1204      C1205   1.404       .  A
C1204      H1209   1.084       .  S
C1205      C1206   1.413       .  A
C1206      C1210   1.515       .  S
C1207      C1212   1.418       .  A
C1207      C1216   1.404       .  A
C1208      F1224   1.382       .  S
C1208      F1225   1.383       .  S
C1208      F1226   1.385       .  S
C1210      F1221   1.383       .  S
C1210      F1222   1.384       .  S
C1210      F1223   1.383       .  S
C1212      C1213   1.408       .  A
C1212      C1217   1.520       .  S
C1213      C1214   1.403       .  A
C1213      H1218   1.079       .  S
C1214      C1215   1.421       .  A
C1215      C1216   1.413       .  A
C1215      C1219   1.519       .  S
C1216      H1220   1.083       .  S
C1217      F1230   1.384       .  S
C1217      F1231   1.382       .  S
C1217      F1232   1.383       .  S
C1219      F1227   1.381       .  S
C1219      F1228   1.382       .  S
C1219      F1229   1.384       .  S
C1233      C1234   1.401       .  A
C1233      C1238   1.410       .  A
C1233      H1243   1.083       .  S
C1234      C1235   1.420       .  A
C1234      C1239   1.500       .  S
C1235      C1236   1.414       .  A
C1235      C1240   1.518       .  S
C1236      C1237   1.406       .  A
C1236      H1241   1.083       .  S
C1237      C1238   1.423       .  A
C1238      C1242   1.515       .  S
C1239      C1244   1.419       .  A
C1239      C1248   1.404       .  A
C1240      F1256   1.381       .  S
C1240      F1257   1.383       .  S
C1240      F1258   1.385       .  S
C1242      F1253   1.385       .  S
C1242      F1254   1.377       .  S
C1242      F1255   1.382       .  S
C1244      C1245   1.413       .  A
C1244      C1249   1.518       .  S
C1245      C1246   1.406       .  A
C1245      H1250   1.083       .  S
C1246      C1247   1.420       .  A
C1247      C1248   1.407       .  A
C1247      C1251   1.517       .  S
C1248      H1252   1.084       .  S
C1249      F1262   1.385       .  S
C1249      F1263   1.381       .  S
C1249      F1264   1.383       .  S
C1251      F1259   1.383       .  S
C1251      F1260   1.382       .  S
C1251      F1261   1.384       .  S
C1265      C1266   1.405       .  A
C1265      C1270   1.410       .  A
C1265      H1275   1.084       .  S
C1266      C1267   1.420       .  A
C1266      C1271   1.504       .  S
C1267      C1268   1.414       .  A
C1267      C1272   1.520       .  S
C1268      C1269   1.409       .  A
C1268      H1273   1.083       .  S
C1269      C1270   1.420       .  A
C1270      C1274   1.515       .  S
C1271      C1276   1.421       .  A
C1271      C1280   1.403       .  A
C1272      F1288   1.381       .  S
C1272      F1289   1.383       .  S
C1272      F1290   1.384       .  S
C1274      F1285   1.381       .  S
C1274      F1286   1.384       .  S
C1274      F1287   1.382       .  S
C1276      C1277   1.414       .  A
C1276      C1281   1.519       .  S
C1277      C1278   1.408       .  A
C1277      H1282   1.083       .  S
C1278      C1279   1.422       .  A
C1279      C1280   1.412       .  A
C1279      C1283   1.515       .  S
C1280      H1284   1.082       .  S
C1281      F1294   1.385       .  S
C1281      F1295   1.380       .  S
C1281      F1296   1.383       .  S
C1283      F1291   1.375       .  S
C1283      F1292   1.383       .  S
C1283      F1293   1.385       .  S
C1297      C1298   1.399       .  A
C1297      C1302   1.403       .  A
C1297      H1307   1.084       .  S
C1298      C1299   1.420   1_556  A
C1298      C1303   1.492       .  S
C1299      C1300   1.412       .  A
C1299      C1304   1.519       .  S
C1300      C1301   1.404   1_554  A
C1300      H1305   1.083       .  S
C1301      C1302   1.423       .  A
C1302      C1306   1.521       .  S
C1303      C1308   1.420       .  A
C1303      C1312   1.396       .  A
C1304      F1320   1.381       .  S
C1304      F1321   1.383       .  S
C1304      F1322   1.385       .  S
C1306      F1317   1.384       .  S
C1306      F1318   1.383       .  S
C1306      F1319   1.381       .  S
C1308      C1309   1.413       .  A
C1308      C1313   1.520       .  S
C1309      C1310   1.408       .  A
C1309      H1314   1.083       .  S
C1310      C1311   1.431       .  A
C1311      C1312   1.406       .  A
C1311      C1315   1.523       .  S
C1312      H1316   1.083       .  S
C1313      F1326   1.385       .  S
C1313      F1327   1.381       .  S
C1313      F1328   1.383   1_556  S
C1315      F1323   1.385       .  S
C1315      F1324   1.382       .  S
C1315      F1325   1.384       .  S
C1329      C1330   1.405       .  A
C1329      C1334   1.414       .  A
C1329      H1339   1.083       .  S
C1330      C1331   1.413       .  A
C1330      C1335   1.491       .  S
C1331      C1332   1.405       .  A
C1331      C1336   1.521       .  S
C1332      C1333   1.410       .  A
C1332      H1337   1.082       .  S
C1333      C1334   1.418       .  A
C1334      C1338   1.517       .  S
C1335      C1340   1.420       .  A
C1335      C1344   1.397       .  A
C1336      F1352   1.382       .  S
C1336      F1353   1.382       .  S
C1336      F1354   1.384       .  S
C1338      F1349   1.383       .  S
C1338      F1350   1.385       .  S
C1338      F1351   1.380       .  S
C1340      C1341   1.415       .  A
C1340      C1345   1.518       .  S
C1341      C1342   1.403       .  A
C1341      H1346   1.082       .  S
C1342      C1343   1.423       .  A
C1343      C1344   1.405       .  A
C1343      C1347   1.522       .  S
C1344      H1348   1.083       .  S
C1345      F1358   1.384       .  S
C1345      F1359   1.382       .  S
C1345      F1360   1.383       .  S
C1347      F1355   1.385       .  S
C1347      F1356   1.381       .  S
C1347      F1357   1.381       .  S
C1361      C1362   1.396       .  A
C1361      C1366   1.404       .  A
C1361      H1371   1.083       .  S
C1362      C1363   1.422       .  A
C1362      C1367   1.501       .  S
C1363      C1364   1.422       .  A
C1363      C1368   1.516       .  S
C1364      C1365   1.407       .  A
C1364      H1369   1.083       .  S
C1365      C1366   1.424       .  A
C1366      C1370   1.512       .  S
C1367      C1372   1.423       .  A
C1367      C1376   1.405       .  A
C1368      F1384   1.381       .  S
C1368      F1385   1.383       .  S
C1368      F1386   1.384       .  S
C1370      F1381   1.385       .  S
C1370      F1382   1.381       .  S
C1370      F1383   1.380       .  S
C1372      C1373   1.414       .  A
C1372      C1377   1.520       .  S
C1373      C1374   1.403       .  A
C1373      H1378   1.083       .  S
C1374      C1375   1.418       .  A
C1375      C1376   1.411       .  A
C1375      C1379   1.519       .  S
C1376      H1380   1.082       .  S
C1377      F1390   1.385       .  S
C1377      F1391   1.381       .  S
C1377      F1392   1.382       .  S
C1379      F1387   1.385       .  S
C1379      F1388   1.382       .  S
C1379      F1389   1.382       .  S
C1393      C1394   1.406       .  A
C1393      C1398   1.413       .  A
C1393      H1403   1.083       .  S
C1394      C1395   1.417       .  A
C1394      C1399   1.495       .  S
C1395      C1396   1.409       .  A
C1395      C1400   1.521       .  S
C1396      C1397   1.405       .  A
C1396      H1401   1.082       .  S
C1397      C1398   1.414       .  A
C1398      C1402   1.516       .  S
C1399      C1404   1.418       .  A
C1399      C1408   1.403       .  A
C1400      F1416   1.382       .  S
C1400      F1417   1.382       .  S
C1400      F1418   1.385       .  S
C1402      F1413   1.382   1_556  S
C1402      F1414   1.384   1_556  S
C1402      F1415   1.383       .  S
C1404      C1405   1.410       .  A
C1404      C1409   1.520   1_556  S
C1405      C1406   1.405       .  A
C1405      H1410   1.082   1_556  S
C1406      C1407   1.421       .  A
C1407      C1408   1.413       .  A
C1407      C1411   1.521       .  S
C1408      H1412   1.083       .  S
C1409      F1422   1.385       .  S
C1409      F1423   1.382       .  S
C1409      F1424   1.382   1_554  S
C1411      F1419   1.381       .  S
C1411      F1420   1.382       .  S
C1411      F1421   1.384       .  S
C1425      C1426   1.401       .  A
C1425      C1430   1.407       .  A
C1425      H1435   1.084       .  S
C1426      C1427   1.416       .  A
C1426      C1431   1.481       .  S
C1427      C1428   1.406       .  A
C1427      C1432   1.522       .  S
C1428      C1429   1.405       .  A
C1428      H1433   1.078       .  S
C1429      C1430   1.421       .  A
C1430      C1434   1.521       .  S
C1431      C1436   1.414       .  A
C1431      C1440   1.393       .  A
C1432      F1448   1.383       .  S
C1432      F1449   1.381       .  S
C1432      F1450   1.385       .  S
C1434      F1445   1.381       .  S
C1434      F1446   1.385       .  S
C1434      F1447   1.383       .  S
C1436      C1437   1.413       .  A
C1436      C1441   1.517       .  S
C1437      C1438   1.407       .  A
C1437      H1442   1.083       .  S
C1438      C1439   1.431       .  A
C1439      C1440   1.399       .  A
C1439      C1443   1.526       .  S
C1440      H1444   1.084       .  S
C1441      F1454   1.385       .  S
C1441      F1455   1.383       .  S
C1441      F1456   1.381       .  S
C1443      F1451   1.385       .  S
C1443      F1452   1.384       .  S
C1443      F1453   1.382       .  S
C1457      C1458   1.404       .  A
C1457      C1462   1.407       .  A
C1457      H1467   1.084       .  S
C1458      C1459   1.418       .  A
C1458      C1463   1.494       .  S
C1459      C1460   1.411       .  A
C1459      C1464   1.519       .  S
C1460      C1461   1.405       .  A
C1460      H1465   1.083       .  S
C1461      C1462   1.417       .  A
C1462      C1466   1.516       .  S
C1463      C1468   1.420       .  A
C1463      C1472   1.399       .  A
C1464      F1480   1.381       .  S
C1464      F1481   1.382       .  S
C1464      F1482   1.385       .  S
C1466      F1477   1.381       .  S
C1466      F1478   1.384       .  S
C1466      F1479   1.382       .  S
C1468      C1469   1.415       .  A
C1468      C1473   1.517       .  S
C1469      C1470   1.404       .  A
C1469      H1474   1.083       .  S
C1470      C1471   1.420       .  A
C1471      C1472   1.406       .  A
C1471      C1475   1.515       .  S
C1472      H1476   1.083       .  S
C1473      F1486   1.384       .  S
C1473      F1487   1.382       .  S
C1473      F1488   1.382       .  S
C1475      F1483   1.385       .  S
C1475      F1484   1.381       .  S
C1475      F1485   1.382       .  S
C1489      C1490   1.397       .  A
C1489      C1494   1.398       .  A
C1489      H1499   1.085       .  S
C1490      C1491   1.415       .  A
C1490      C1495   1.479       .  S
C1491      C1492   1.408       .  A
C1491      C1496   1.519       .  S
C1492      C1493   1.405       .  A
C1492      H1497   1.082       .  S
C1493      C1494   1.421       .  A
C1494      C1498   1.518       .  S
C1495      C1500   1.411       .  A
C1495      C1504   1.407       .  A
C1496      F1512   1.382       .  S
C1496      F1513   1.382       .  S
C1496      F1514   1.385       .  S
C1498      F1509   1.383       .  S
C1498      F1510   1.383       .  S
C1498      F1511   1.379       .  S
C1500      C1501   1.399       .  A
C1500      C1505   1.522       .  S
C1501      C1502   1.407       .  A
C1501      H1506   1.083       .  S
C1502      C1503   1.413       .  A
C1503      C1504   1.412       .  A
C1503      C1507   1.516       .  S
C1504      H1508   1.083       .  S
C1505      F1518   1.385       .  S
C1505      F1519   1.382       .  S
C1505      F1520   1.382       .  S
C1507      F1515   1.382       .  S
C1507      F1516   1.383       .  S
C1507      F1517   1.385       .  S
C1521      C1522   1.400       .  A
C1521      C1526   1.403       .  A
C1521      H1531   1.085       .  S
C1522      C1523   1.417       .  A
C1522      C1527   1.489       .  S
C1523      C1524   1.411       .  A
C1523      C1528   1.519       .  S
C1524      C1525   1.405       .  A
C1524      H1529   1.083       .  S
C1525      C1526   1.420       .  A
C1526      C1530   1.518       .  S
C1527      C1532   1.420       .  A
C1527      C1536   1.395       .  A
C1528      F1544   1.382       .  S
C1528      F1545   1.383       .  S
C1528      F1546   1.385       .  S
C1530      F1541   1.383       .  S
C1530      F1542   1.383       .  S
C1530      F1543   1.381       .  S
C1532      C1533   1.413       .  A
C1532      C1537   1.519       .  S
C1533      C1534   1.405       .  A
C1533      H1538   1.082       .  S
C1534      C1535   1.430       .  A
C1535      C1536   1.404       .  A
C1535      C1539   1.523       .  S
C1536      H1540   1.083       .  S
C1537      F1550   1.385       .  S
C1537      F1551   1.382       .  S
C1537      F1552   1.383       .  S
C1539      F1547   1.385       .  S
C1539      F1548   1.383       .  S
C1539      F1549   1.384       .  S
C1553      C1554   1.406       .  A
C1553      C1558   1.411       .  A
C1553      H1563   1.084       .  S
C1554      C1555   1.422       .  A
C1554      C1559   1.507       .  S
C1555      C1556   1.414       .  A
C1555      C1560   1.518       .  S
C1556      C1557   1.405       .  A
C1556      H1561   1.083       .  S
C1557      C1558   1.421       .  A
C1558      C1562   1.517       .  S
C1559      C1564   1.420       .  A
C1559      C1568   1.403       .  A
C1560      F1576   1.380       .  S
C1560      F1577   1.383       .  S
C1560      F1578   1.385       .  S
C1562      F1573   1.384       .  S
C1562      F1574   1.383       .  S
C1562      F1575   1.381       .  S
C1564      C1565   1.414       .  A
C1564      C1569   1.517       .  S
C1565      C1566   1.408       .  A
C1565      H1570   1.084       .  S
C1566      C1567   1.424       .  A
C1567      C1568   1.413       .  A
C1567      C1571   1.515       .  S
C1568      H1572   1.081       .  S
C1569      F1582   1.385       .  S
C1569      F1583   1.382       .  S
C1569      F1584   1.384       .  S
C1571      F1579   1.375       .  S
C1571      F1580   1.383       .  S
C1571      F1581   1.385       .  S
C1585      C1586   1.406       .  A
C1585      C1590   1.413       .  A
C1585      H1595   1.082       .  S
C1586      C1587   1.425       .  A
C1586      C1591   1.508       .  S
C1587      C1588   1.415       .  A
C1587      C1592   1.520       .  S
C1588      C1589   1.402       .  A
C1588      H1593   1.083       .  S
C1589      C1590   1.417       .  A
C1590      C1594   1.520       .  S
C1591      C1596   1.424       .  A
C1591      C1600   1.396       .  A
C1592      F1608   1.381       .  S
C1592      F1609   1.383       .  S
C1592      F1610   1.385       .  S
C1594      F1605   1.383       .  S
C1594      F1606   1.384       .  S
C1594      F1607   1.381       .  S
C1596      C1597   1.422       .  A
C1596      C1601   1.516       .  S
C1597      C1598   1.408       .  A
C1597      H1602   1.083       .  S
C1598      C1599   1.424       .  A
C1599      C1600   1.406       .  A
C1599      C1603   1.505       .  S
C1600      H1604   1.082       .  S
C1601      F1614   1.385       .  S
C1601      F1615   1.381       .  S
C1601      F1616   1.383       .  S
C1603      F1611   1.376       .  S
C1603      F1612   1.380       .  S
C1603      F1613   1.385       .  S
C1617      C1618   1.404       .  A
C1617      C1622   1.412       .  A
C1617      H1627   1.081       .  S
C1618      C1619   1.418       .  A
C1618      C1623   1.494       .  S
C1619      C1620   1.407       .  A
C1619      C1624   1.521       .  S
C1620      C1621   1.404       .  A
C1620      H1625   1.077       .  S
C1621      C1622   1.417       .  A
C1622      C1626   1.516       .  S
C1623      C1628   1.422       .  A
C1623      C1632   1.393       .  A
C1624      F1640   1.382       .  S
C1624      F1641   1.383       .  S
C1624      F1642   1.385       .  S
C1626      F1637   1.383       .  S
C1626      F1638   1.384       .  S
C1626      F1639   1.381       .  S
C1628      C1629   1.418       .  A
C1628      C1633   1.517       .  S
C1629      C1630   1.405       .  A
C1629      H1634   1.083       .  S
C1630      C1631   1.433       .  A
C1631      C1632   1.403       .  A
C1631      C1635   1.525       .  S
C1632      H1636   1.083       .  S
C1633      F1646   1.384       .  S
C1633      F1647   1.382       .  S
C1633      F1648   1.383       .  S
C1635      F1643   1.383       .  S
C1635      F1644   1.382       .  S
C1635      F1645   1.385       .  S
C1649      C1650   1.399       .  A
C1649      C1654   1.400       .  A
C1649      H1659   1.085       .  S
C1650      C1651   1.424       .  A
C1650      C1655   1.496       .  S
C1651      C1652   1.414       .  A
C1651      C1656   1.516       .  S
C1652      C1653   1.404       .  A
C1652      H1657   1.080       .  S
C1653      C1654   1.423       .  A
C1654      C1658   1.517       .  S
C1655      C1660   1.425       .  A
C1655      C1664   1.405       .  A
C1656      F1672   1.382       .  S
C1656      F1673   1.382       .  S
C1656      F1674   1.384       .  S
C1658      F1669   1.383       .  S
C1658      F1670   1.383       .  S
C1658      F1671   1.382       .  S
C1660      C1661   1.409       .  A
C1660      C1665   1.518       .  S
C1661      C1662   1.400       .  A
C1661      H1666   1.085       .  S
C1662      C1663   1.417       .  A
C1663      C1664   1.407       .  A
C1663      C1667   1.521       .  S
C1664      H1668   1.083       .  S
C1665      F1678   1.384       .  S
C1665      F1679   1.381       .  S
C1665      F1680   1.382       .  S
C1667      F1675   1.384       .  S
C1667      F1676   1.383       .  S
C1667      F1677   1.379       .  S
C1681      C1682   1.405       .  A
C1681      C1686   1.415       .  A
C1681      H1691   1.084       .  S
C1682      C1683   1.418       .  A
C1682      C1687   1.500       .  S
C1683      C1684   1.411       .  A
C1683      C1688   1.522       .  S
C1684      C1685   1.408       .  A
C1684      H1689   1.080       .  S
C1685      C1686   1.425       .  A
C1686      C1690   1.522       .  S
C1687      C1692   1.417       .  A
C1687      C1696   1.394       .  A
C1688      F1704   1.383       .  S
C1688      F1705   1.380       .  S
C1688      F1706   1.385       .  S
C1690      F1701   1.382       .  S
C1690      F1702   1.385       .  S
C1690      F1703   1.383       .  S
C1692      C1693   1.422       .  A
C1692      C1697   1.518       .  S
C1693      C1694   1.412       .  A
C1693      H1698   1.083       .  S
C1694      C1695   1.439       .  A
C1695      C1696   1.407       .  A
C1695      C1699   1.527       .  S
C1696      H1700   1.083       .  S
C1697      F1710   1.384       .  S
C1697      F1711   1.383       .  S
C1697      F1712   1.380       .  S
C1699      F1707   1.384       .  S
C1699      F1708   1.383       .  S
C1699      F1709   1.385       .  S
C1713      C1714   1.398       .  A
C1713      C1718   1.405       .  A
C1713      H1723   1.083       .  S
C1714      C1715   1.422       .  A
C1714      C1719   1.497       .  S
C1715      C1716   1.417       .  A
C1715      C1720   1.517       .  S
C1716      C1717   1.404       .  A
C1716      H1721   1.083       .  S
C1717      C1718   1.421       .  A
C1718      C1722   1.515       .  S
C1719      C1724   1.420       .  A
C1719      C1728   1.404       .  A
C1720      F1736   1.382       .  S
C1720      F1737   1.383       .  S
C1720      F1738   1.385       .  S
C1722      F1733   1.382       .  S
C1722      F1734   1.385       .  S
C1722      F1735   1.382       .  S
C1724      C1725   1.410       .  A
C1724      C1729   1.519       .  S
C1725      C1726   1.403       .  A
C1725      H1730   1.083       .  S
C1726      C1727   1.419       .  A
C1727      C1728   1.409       .  A
C1727      C1731   1.516       .  S
C1728      H1732   1.084       .  S
C1729      F1742   1.385       .  S
C1729      F1743   1.381       .  S
C1729      F1744   1.383       .  S
C1731      F1739   1.384       .  S
C1731      F1740   1.382       .  S
C1731      F1741   1.380       .  S
C1745      C1746   1.402       .  A
C1745      C1750   1.407       .  A
C1745      H1755   1.083       .  S
C1746      C1747   1.416       .  A
C1746      C1751   1.481       .  S
C1747      C1748   1.402       .  A
C1747      C1752   1.520       .  S
C1748      C1749   1.403       .  A
C1748      H1753   1.083       .  S
C1749      C1750   1.416       .  A
C1750      C1754   1.517       .  S
C1751      C1756   1.410       .  A
C1751      C1760   1.407       .  A
C1752      F1768   1.382       .  S
C1752      F1769   1.383       .  S
C1752      F1770   1.384       .  S
C1754      F1765   1.382       .  S
C1754      F1766   1.385       .  S
C1754      F1767   1.383       .  S
C1756      C1757   1.399       .  A
C1756      C1761   1.522       .  S
C1757      C1758   1.409       .  A
C1757      H1762   1.083       .  S
C1758      C1759   1.415       .  A
C1759      C1760   1.411       .  A
C1759      C1763   1.518       .  S
C1760      H1764   1.083       .  S
C1761      F1774   1.385       .  S
C1761      F1775   1.382       .  S
C1761      F1776   1.383       .  S
C1763      F1771   1.385       .  S
C1763      F1772   1.379       .  S
C1763      F1773   1.383       .  S
C1777      C1778   1.397       .  A
C1777      C1782   1.404       .  A
C1777      H1787   1.085       .  S
C1778      C1779   1.417       .  A
C1778      C1783   1.490       .  S
C1779      C1780   1.413       .  A
C1779      C1784   1.519       .  S
C1780      C1781   1.407       .  A
C1780      H1785   1.083       .  S
C1781      C1782   1.424       .  A
C1782      C1786   1.517       .  S
C1783      C1788   1.410       .  A
C1783      C1792   1.409       .  A
C1784      F1800   1.383       .  S
C1784      F1801   1.382       .  S
C1784      F1802   1.384       .  S
C1786      F1797   1.384       .  S
C1786      F1798   1.383       .  S
C1786      F1799   1.377       .  S
C1788      C1789   1.402       .  A
C1788      C1793   1.521       .  S
C1789      C1790   1.410       .  A
C1789      H1794   1.083       .  S
C1790      C1791   1.418       .  A
C1791      C1792   1.417       .  A
C1791      C1795   1.517       .  S
C1792      H1796   1.083       .  S
C1793      F1806   1.385       .  S
C1793      F1807   1.382       .  S
C1793      F1808   1.381       .  S
C1795      F1803   1.385       .  S
C1795      F1804   1.383       .  S
C1795      F1805   1.381       .  S
