geometry optimzed in LAMMPS
_audit_creation_date              2020-12-01 
_audit_creation_method            'lammps2cif' 
_symmetry_space_group_name_H-M    'P1' 
_symmetry_Int_Tables_number       1 
_symmetry_cell_setting            triclinic 
loop_ 
_symmetry_equiv_pos_as_xyz 
  x,y,z 
_cell_length_a                    35.57520241 
_cell_length_b                    30.35653884426365 
_cell_length_c                    29.028647358079677 
_cell_angle_alpha                 88.80474741440125 
_cell_angle_beta                  89.38796029332045 
_cell_angle_gamma                 89.38132650853069 
loop_ 
_atom_site_label 
_atom_site_type_symbol 
_atom_site_fract_x 
_atom_site_fract_y 
_atom_site_fract_z 
_atom_site_charge 
C1          C  0.70778575  0.30517161  0.25445994     0.86000
C2          C  0.68425549  0.29737166  0.21114667    -0.54200
C3          C  0.66242029  0.26021996  0.21229148     0.09000
C4          C  0.66882530  0.23232978  0.25713641     0.19900
C5          C  0.67999287  0.30201379  0.29486532    -0.54900
C6          C  0.65923330  0.26459326  0.29654003     0.09100
C7          C  0.73182454  0.26268448  0.25819736    -0.54400
C8          C  0.71202584  0.22418637  0.25924703     0.09600
H9          H  0.68395412  0.32096643  0.18264326     0.14200
H10         H  0.65321564  0.20146974  0.25876228    -0.00100
H11         H  0.67637085  0.32803154  0.31971765     0.14500
H12         H  0.76226745  0.26248489  0.25727745     0.14300
C13         C  0.79632288  0.05508391  0.24306466     0.86000
C14         C  0.82681830  0.04975274  0.27979399    -0.54200
C15         C  0.84690901  0.50981894  0.28028736     0.09000
C16         C  0.83520493  0.47976921  0.24074526     0.19900
C17         C  0.81621565  0.04732765  0.19652192    -0.54900
C18         C  0.83862901  0.50868618  0.19664726     0.09100
C19         C  0.77296651  0.51259992  0.24996262    -0.54400
C20         C  0.79230257  0.47306988  0.24807042     0.09600
H21         H  0.83153568  0.07412496  0.30593359     0.14200
H22         H  0.85239263  0.44948136  0.23819717    -0.00100
H23         H  0.81455989  0.06987406  0.16714607     0.14500
H24         H  0.74273788  0.51440058  0.25462230     0.14300
C25         C  0.29023120  0.17677781  0.25851325     0.86000
C26         C  0.31863086  0.18369042  0.21845047    -0.54200
C27         C  0.33809001  0.22223043  0.21926268     0.09000
C28         C  0.32808988  0.25058995  0.26093286     0.19900
C29         C  0.31416039  0.18206348  0.30225476    -0.54900
C30         C  0.33502621  0.21955339  0.30276740     0.09100
C31         C  0.26547011  0.21862212  0.25855962    -0.54400
C32         C  0.28503621  0.25709712  0.25924833     0.09600
H33         H  0.32345270  0.15954658  0.19188131     0.14200
H34         H  0.34360525  0.28207467  0.26166868    -0.00100
H35         H  0.31578577  0.15901924  0.33096618     0.14500
H36         H  0.23498377  0.21811829  0.25875243     0.14300
C37         C  0.20715402  0.00709699  0.23984403     0.86000
C38         C  0.18170198  0.00250403  0.19738720    -0.54200
C39         C  0.16046760  0.46732244  0.19886296     0.09000
C40         C  0.16749773  0.43569041  0.24025365     0.19900
C41         C  0.17969237  0.00130963  0.28084315    -0.54900
C42         C  0.15943947  0.46436475  0.28242574     0.09100
C43         C  0.23119501  0.46490956  0.24078942    -0.54400
C44         C  0.21037187  0.42734784  0.24047475     0.09600
H45         H  0.17863374  0.02626298  0.16953585     0.14200
H46         H  0.15139118  0.40473349  0.23967300    -0.00100
H47         H  0.17593904  0.02616521  0.30692555     0.14500
H48         H  0.26170117  0.46413720  0.24032064     0.14300
O49         O  0.95736316  0.44127243  0.03863896    -0.74900
O50         O  0.03399813  0.42408441  0.44799537    -0.74900
O51         O  0.03287480  0.42573895  0.04047298    -0.75000
O52         O  0.95860756  0.43897541  0.44666817    -0.75000
O53         O  0.96955010  0.01113650  0.43875328    -0.74900
O54         O  0.04113215  0.99603823  0.03596643    -0.74900
O55         O  0.04441511  0.99585779  0.44375016    -0.74900
O56         O  0.96661726  0.01269949  0.03130749    -0.75000
Ni57       Ni  0.99544203  0.43057880  0.49441718     1.25400
Ni58       Ni  0.00546815  0.00816284  0.48762825     1.25400
C59         C  0.94972735  0.48085844  0.05069565     0.87300
C60         C  0.05194347  0.45740067  0.43169906     0.87200
C61         C  0.04920309  0.46053394  0.05413264     0.87300
C62         C  0.95246471  0.47688380  0.42772648     0.87400
O63         O  0.45557661  0.28308933  0.46102002    -0.74900
O64         O  0.53523869  0.29025851  0.05169814    -0.74900
O65         O  0.53173524  0.28665861  0.45611565    -0.75000
O66         O  0.45838246  0.28756469  0.05638676    -0.75000
O67         O  0.46096159  0.21405898  0.05830797    -0.74900
O68         O  0.53598426  0.21342177  0.46015185    -0.74900
O69         O  0.53698948  0.21678207  0.05525301    -0.74900
O70         O  0.46005588  0.20999032  0.46351391    -0.75000
Ni71       Ni  0.49527341  0.28827533  0.50547079     1.25400
Ni72       Ni  0.49875909  0.20974159  0.50856429     1.25400
C73         C  0.44505627  0.24540476  0.44697976     0.87300
C74         C  0.54913317  0.25402040  0.06809995     0.87200
C75         C  0.54599420  0.25034676  0.44192425     0.87300
C76         C  0.44737097  0.25041067  0.07306856     0.87400
C77         C  0.06891915  0.44174954  0.35110278    -0.20700
C78         C  0.08070387  0.45149028  0.39551375    -0.07300
C79         C  0.11887414  0.46018203  0.40338094     0.13600
C80         C  0.14425243  0.46066695  0.36605276    -0.20800
C81         C  0.13222548  0.45407584  0.32067458    -0.07300
C82         C  0.09399926  0.44335526  0.31335884     0.13500
C83         C  0.07827808  0.43691060  0.26610370    -0.24200
H84         H  0.03938757  0.43535976  0.34558303     0.14800
H85         H  0.17349928  0.46812959  0.37207231     0.14900
C86         C  0.13268524  0.46959355  0.45104118    -0.24100
H87         H  0.04732382  0.43248321  0.26714384     0.05100
H88         H  0.09048576  0.40704708  0.25038738     0.08300
H89         H  0.08377844  0.96264697  0.24352708     0.08300
H90         H  0.12628280  0.44132295  0.47458129     0.08300
H91         H  0.11865570  0.49969663  0.46424897     0.08300
H92         H  0.16352087  0.47493282  0.45128975     0.05100
C93         C  0.12684623  0.42521241  0.13884952    -0.20700
C94         C  0.12933774  0.46328963  0.16521533    -0.07300
C95         C  0.10261160  0.99612764  0.15690662     0.13600
C96         C  0.07709770  0.99345917  0.12088817    -0.20800
C97         C  0.07633193  0.45871325  0.09298436    -0.07300
C98         C  0.10044200  0.42226696  0.10303199     0.13500
C99         C  0.09951688  0.38089555  0.07537183    -0.24200
H100        H  0.14634518  0.39819185  0.14546832     0.14800
H101        H  0.05803362  0.02102196  0.11462610     0.14900
C102        C  0.09972877  0.03648463  0.18641622    -0.24100
H103        H  0.12137169  0.35671677  0.08667105     0.05100
H104        H  0.10459309  0.38892484  0.03838392     0.08300
H105        H  0.07177467  0.36489586  0.07975609     0.08300
H106        H  0.10825486  0.06604748  0.16587072     0.08300
H107        H  0.11682727  0.03410228  0.21799115     0.08300
H108        H  0.07015679  0.04103684  0.19819580     0.05100
C109        C  0.27195695  0.32665822  0.21582058    -0.20700
C110        C  0.26611034  0.30094173  0.25590733    -0.07300
C111        C  0.24083743  0.31633690  0.29014031     0.13600
C112        C  0.22195578  0.35685263  0.28314886    -0.20800
C113        C  0.22807271  0.38275462  0.24322285    -0.07300
C114        C  0.25298713  0.36707410  0.20876943     0.13500
C115        C  0.25930026  0.39133004  0.16356802    -0.24200
H116        H  0.29078720  0.31454544  0.18919342     0.14800
H117        H  0.20317566  0.36900517  0.30980392     0.14900
C118        C  0.23411698  0.29177453  0.33508501    -0.24100
H119        H  0.25221044  0.36947789  0.13477447     0.05100
H120        H  0.28929744  0.40070509  0.16025801     0.08300
H121        H  0.24170878  0.42150743  0.15983205     0.08300
H122        H  0.24098866  0.31338466  0.36415811     0.08300
H123        H  0.25158792  0.26150619  0.33880369     0.08300
H124        H  0.20407716  0.28245666  0.33792730     0.05100
C125        C  0.22660750  0.08483375  0.21103188    -0.20700
C126        C  0.23020805  0.05008150  0.24391261    -0.07300
C127        C  0.25395003  0.05749202  0.28217576     0.13600
C128        C  0.27226988  0.09815808  0.28608128    -0.20800
C129        C  0.26810476  0.13321846  0.25365481    -0.09900
C130        C  0.24466602  0.12564226  0.21516930     0.13500
C131        C  0.23777814  0.15998705  0.17740683    -0.24200
H132        H  0.20918886  0.08145985  0.18154721     0.14800
H133        H  0.29045236  0.10115769  0.31497571     0.14900
C134        C  0.26089397  0.02311343  0.31990751    -0.24100
H135        H  0.21979956  0.14731504  0.14970644     0.05100
H136        H  0.26435500  0.17022141  0.16046787     0.08300
H137        H  0.22276079  0.18906481  0.19105004     0.08300
H138        H  0.27496261  0.99355029  0.30593763     0.08300
H139        H  0.23448831  0.01371789  0.33776747     0.08300
H140        H  0.27970417  0.03538456  0.34698254     0.05100
C141        C  0.36522695  0.26753400  0.36043585    -0.20700
C142        C  0.36401394  0.22675488  0.33853628    -0.07300
C143        C  0.39006569  0.19322526  0.35181082     0.13600
C144        C  0.41491462  0.20069676  0.38769518    -0.20800
C145        C  0.41631932  0.24124118  0.41006551    -0.07300
C146        C  0.39103897  0.27534838  0.39593374     0.13500
C147        C  0.39023824  0.31957470  0.41850154    -0.24200
H148        H  0.34540981  0.29319737  0.35019494     0.14800
H149        H  0.43442614  0.17444748  0.39718433     0.14900
C150        C  0.39426384  0.14956342  0.32802420    -0.24100
H151        H  0.41737503  0.33652415  0.41241021     0.05100
H152        H  0.38498332  0.31523166  0.45608462     0.08300
H153        H  0.36766036  0.34133219  0.40436185     0.08300
H154        H  0.37852151  0.14768408  0.29552570     0.08300
H155        H  0.38517376  0.12251243  0.35180579     0.08300
H156        H  0.42425729  0.14399294  0.31857693     0.05100
C157        C  0.35443878  0.23620065  0.13663201    -0.20700
C158        C  0.36617215  0.23454675  0.18274094    -0.07300
C159        C  0.40460440  0.24162245  0.19243547     0.13600
C160        C  0.43027549  0.24864617  0.15590080    -0.20800
C161        C  0.41859241  0.24886236  0.11003562    -0.07300
C162        C  0.38020007  0.24341986  0.10020982     0.13500
C163        C  0.36662173  0.24468280  0.05123130    -0.24200
H164        H  0.32504242  0.23109711  0.12909135     0.14800
H165        H  0.45990382  0.25252162  0.16303811     0.14900
C166        C  0.41941796  0.23906877  0.24073310    -0.24100
H167        H  0.33575585  0.23999322  0.04944569     0.05100
H168        H  0.38065436  0.21818768  0.03137840     0.08300
H169        H  0.37335944  0.27709150  0.03495058     0.08300
H170        H  0.41293482  0.20638630  0.25611980     0.08300
H171        H  0.40676421  0.26549092  0.26176320     0.08300
H172        H  0.45039630  0.24310399  0.24154781     0.05100
C173        C  0.86118682  0.48912245  0.36172353    -0.20700
C174        C  0.87450822  0.49736389  0.31663248    -0.07300
C175        C  0.91323601  0.99487492  0.30547533     0.13600
C176        C  0.93812646  0.98683590  0.34223568    -0.20800
C177        C  0.92516426  0.48159567  0.38982795    -0.07300
C178        C  0.88605775  0.48073483  0.39831497     0.13500
C179        C  0.87068110  0.47229228  0.44621703    -0.24200
H180        H  0.83113893  0.48971207  0.36834316     0.14800
H181        H  0.96815428  0.98516290  0.33558995     0.14900
C182        C  0.92876442  0.00140581  0.25742887    -0.24100
H183        H  0.83946219  0.47320296  0.44701470     0.05100
H184        H  0.88096945  0.49775859  0.46979267     0.08300
H185        H  0.88009002  0.43929423  0.45898130     0.08300
H186        H  0.92078169  0.03469443  0.24410114     0.08300
H187        H  0.91743210  0.97606771  0.23452040     0.08300
H188        H  0.95992014  0.99859828  0.25651591     0.05100
C189        C  0.89215824  0.03299265  0.14795433    -0.20700
C190        C  0.86597425  0.50047165  0.15841682    -0.07300
C191        C  0.86586583  0.46222451  0.13148937     0.13600
C192        C  0.89348484  0.45681915  0.09688131    -0.20800
C193        C  0.92099342  0.48896052  0.08766574    -0.07300
C194        C  0.91993485  0.02740937  0.11378217     0.13500
C195        C  0.94974905  0.06221492  0.10859082    -0.24200
H196        H  0.89253478  0.06207837  0.16899564     0.14800
H197        H  0.89300649  0.42742249  0.07633212     0.14900
C198        C  0.83631179  0.42730057  0.13690251    -0.24100
H199        H  0.94652679  0.08817006  0.13480221     0.05100
H200        H  0.94770674  0.07879441  0.07426515     0.08300
H201        H  0.97805958  0.04700521  0.11292731     0.08300
H202        H  0.81440894  0.43557000  0.16270408     0.08300
H203        H  0.84975224  0.39552503  0.14735999     0.08300
H204        H  0.82197880  0.42315499  0.10349452     0.05100
C205        C  0.74390869  0.10276502  0.27735867    -0.20700
C206        C  0.77493682  0.09966197  0.24690289    -0.07300
C207        C  0.78693982  0.13959956  0.22487053     0.13600
C208        C  0.76356012  0.17724957  0.22594545    -0.20800
C209        C  0.73195103  0.18001182  0.25537789    -0.07300
C210        C  0.72345023  0.14240954  0.28322822     0.13500
C211        C  0.69618540  0.14464506  0.32291719    -0.24200
H212        H  0.73684580  0.07462413  0.29910910     0.14800
H213        H  0.77191927  0.20603998  0.20579788     0.14900
C214        C  0.82567631  0.14621782  0.20427026    -0.24100
H215        H  0.69488323  0.11303144  0.34280484     0.05100
H216        H  0.66737140  0.15209179  0.31105893     0.08300
H217        H  0.70618335  0.16995521  0.34668381     0.08300
H218        H  0.82398497  0.14884702  0.16614262     0.08300
H219        H  0.84598744  0.12013403  0.21475171     0.08300
H220        H  0.83760989  0.17730036  0.21705120     0.05100
C221        C  0.76559830  0.35142225  0.27269489    -0.20700
C222        C  0.72926779  0.34937393  0.25376938    -0.07300
C223        C  0.71310703  0.38983472  0.23744616     0.13600
C224        C  0.73556241  0.42747176  0.23262010    -0.20800
C225        C  0.77226884  0.42923564  0.25015442    -0.07300
C226        C  0.78682969  0.39046268  0.27203617     0.13500
C227        C  0.82345853  0.38963929  0.29761401    -0.24200
H228        H  0.77732344  0.32282090  0.29022946     0.14800
H229        H  0.72319710  0.45650024  0.21634004     0.14900
C230        C  0.67190348  0.39640660  0.22696759    -0.24100
H231        H  0.82554845  0.36059210  0.32139274     0.05100
H232        H  0.82566856  0.41922690  0.31902963     0.08300
H233        H  0.84742456  0.38696582  0.27317455     0.08300
H234        H  0.65421894  0.36825027  0.23740101     0.08300
H235        H  0.66830835  0.40348769  0.18958803     0.08300
H236        H  0.66080590  0.42492068  0.24648015     0.05100
C237        C  0.63364319  0.22889611  0.36834127    -0.20700
C238        C  0.62851081  0.25883009  0.33154079    -0.07300
C239        C  0.59576010  0.28579827  0.33102593     0.13600
C240        C  0.56901610  0.28152800  0.36689023    -0.20800
C241        C  0.57422570  0.25139097  0.40372954    -0.07300
C242        C  0.60699449  0.22453555  0.40424239     0.13500
C243        C  0.61510935  0.19282572  0.44364625    -0.24200
H244        H  0.65942940  0.21028041  0.37032314     0.14800
H245        H  0.54404554  0.30231131  0.36648522     0.14900
C246        C  0.58921369  0.31992616  0.29338275    -0.24100
H247        H  0.64301459  0.17649492  0.43968245     0.05100
H248        H  0.59364438  0.16658210  0.44512799     0.08300
H249        H  0.61496090  0.21070219  0.47663741     0.08300
H250        H  0.56117928  0.33604188  0.29682393     0.08300
H251        H  0.59083536  0.30474320  0.25900585     0.08300
H252        H  0.61065174  0.34598307  0.29530910     0.05100
C253        C  0.64209475  0.26944723  0.12976709    -0.20700
C254        C  0.63414863  0.25202111  0.17441886    -0.07300
C255        C  0.59822710  0.23218245  0.18160422     0.13600
C256        C  0.57143036  0.23417075  0.14616204    -0.20800
C257        C  0.57896975  0.25438357  0.10336201    -0.07300
C258        C  0.61517054  0.27124954  0.09460738     0.13500
C259        C  0.62678046  0.29052570  0.04837954    -0.24200
H260        H  0.66978015  0.28216014  0.12177669     0.14800
H261        H  0.54397495  0.21970403  0.15186255     0.14900
C262        C  0.58683911  0.20798763  0.22527786    -0.24100
H263        H  0.63516328  0.32534592  0.05242601     0.05100
H264        H  0.60419938  0.28973117  0.02244473     0.08300
H265        H  0.65117721  0.27160606  0.03464944     0.08300
H266        H  0.59068898  0.22865717  0.25559820     0.08300
H267        H  0.60300817  0.17667528  0.22841460     0.08300
H268        H  0.55671758  0.19870847  0.22525295     0.05100
C269        C  0.70584422  0.30522417  0.75497573     0.86000
C270        C  0.68262577  0.29729712  0.71143564    -0.54200
C271        C  0.66098667  0.25999073  0.71236180     0.09000
C272        C  0.66720795  0.23213702  0.75726429     0.19900
C273        C  0.67778702  0.30193412  0.79508014    -0.54900
C274        C  0.65733108  0.26428919  0.79662305     0.09100
C275        C  0.73003311  0.26284819  0.75899061    -0.54400
C276        C  0.71037836  0.22421549  0.75981812     0.09600
H277        H  0.68237631  0.32088706  0.68293402     0.14200
H278        H  0.65167308  0.20124802  0.75867584    -0.00100
H279        H  0.67365067  0.32804335  0.81973017     0.14500
H280        H  0.76047996  0.26286037  0.75848383     0.14300
C281        C  0.79567126  0.05569433  0.74424748     0.86000
C282        C  0.82583866  0.05013596  0.78143334    -0.54200
C283        C  0.84524162  0.50930549  0.78006632     0.09000
C284        C  0.83292403  0.47942342  0.74070870     0.19900
C285        C  0.81611039  0.04823486  0.69793727    -0.54900
C286        C  0.83635265  0.50826758  0.69662177     0.09100
C287        C  0.77097524  0.51291987  0.75037995    -0.54400
C288        C  0.79004756  0.47323197  0.74845158     0.09600
H289        H  0.83036728  0.07440709  0.80772658     0.14200
H290        H  0.84966594  0.44880518  0.73797090    -0.00100
H291        H  0.81475245  0.07092463  0.66866322     0.14500
H292        H  0.74075823  0.51490789  0.75513144     0.14300
C293        C  0.29217634  0.17667288  0.75954492     0.86000
C294        C  0.32105683  0.18298453  0.72002179    -0.54200
C295        C  0.34011729  0.22181986  0.72008670     0.09000
C296        C  0.32944418  0.25092235  0.76103938     0.19900
C297        C  0.31566090  0.18285393  0.80347988    -0.54900
C298        C  0.33608480  0.22076453  0.80361015     0.09100
C299        C  0.26716484  0.21832678  0.75822947    -0.54400
C300        C  0.28642202  0.25702361  0.75863724     0.09600
H301        H  0.32644477  0.15822335  0.69423012     0.14200
H302        H  0.34451284  0.28267215  0.76149958    -0.00100
H303        H  0.31771734  0.15978816  0.83218267     0.14500
H304        H  0.23668579  0.21747459  0.75778708     0.14300
C305        C  0.20765533  0.00795852  0.74140428     0.86000
C306        C  0.18194958  0.00448560  0.69901012    -0.54200
C307        C  0.16197849  0.46760590  0.69893924     0.09000
C308        C  0.16951413  0.43552890  0.73973195     0.19900
C309        C  0.18021229  0.00131649  0.78242386    -0.54900
C310        C  0.16100986  0.46330917  0.78240005     0.09100
C311        C  0.23277463  0.46594038  0.74078889    -0.54400
C312        C  0.21246929  0.42796463  0.73977425     0.09600
H313        H  0.17838248  0.02914507  0.67208538     0.14200
H314        H  0.15389932  0.40427275  0.73857730    -0.00100
H315        H  0.17639282  0.02551342  0.80914424     0.14500
H316        H  0.26328319  0.46576919  0.74062667     0.14300
O317        O  0.95754197  0.44236512  0.54059534    -0.74900
O318        O  0.03414049  0.42074054  0.94675504    -0.74900
O319        O  0.03310073  0.42745424  0.54180937    -0.75000
O320        O  0.95861229  0.43622370  0.94478993    -0.75000
O321        O  0.97043369  0.00818797  0.93811840    -0.74900
O322        O  0.04072202  0.00019381  0.53645378    -0.74900
O323        O  0.04512821  0.99152245  0.94340232    -0.74900
O324        O  0.96598214  0.01547827  0.53234685    -0.75000
Ni325      Ni  0.99535806  0.42834685  0.99283010     1.25400
Ni326      Ni  0.00619596  0.00456496  0.98699645     1.25400
C327        C  0.94969113  0.48167324  0.55331846     0.87300
C328        C  0.05243139  0.45367838  0.93014151     0.87200
C329        C  0.04929339  0.46211804  0.55600494     0.87300
C330        C  0.95250880  0.47395728  0.92541628     0.87400
O331        O  0.45541513  0.28593261  0.96253115    -0.74900
O332        O  0.53540274  0.28781090  0.54994952    -0.74900
O333        O  0.53159178  0.28918405  0.95780971    -0.75000
O334        O  0.45879698  0.28477527  0.55488883    -0.75000
O335        O  0.46126746  0.21126666  0.55651764    -0.74900
O336        O  0.53550801  0.21590686  0.96186059    -0.74900
O337        O  0.53728163  0.21433843  0.55367069    -0.74900
O338        O  0.45964306  0.21279783  0.96534858    -0.75000
Ni339      Ni  0.49506605  0.29095043  0.00712511     1.25400
Ni340      Ni  0.49836937  0.21239609  0.01031068     1.25400
C341        C  0.44487033  0.24822719  0.94855680     0.87300
C342        C  0.54925890  0.25165871  0.56654550     0.87200
C343        C  0.54563987  0.25276451  0.94361372     0.87300
C344        C  0.44783399  0.24760370  0.57154541     0.87400
C345        C  0.07045616  0.43744000  0.84999044    -0.20700
C346        C  0.08169472  0.44716413  0.89460074    -0.07300
C347        C  0.11973609  0.45622557  0.90300151     0.13600
C348        C  0.14535155  0.45787494  0.86590712    -0.20800
C349        C  0.13373975  0.45173948  0.82029284    -0.07300
C350        C  0.09579713  0.43988358  0.81253108     0.13500
C351        C  0.08048326  0.43315091  0.76513042    -0.24200
H352        H  0.04106334  0.43058072  0.84406631     0.14800
H353        H  0.17442669  0.46588360  0.87233276     0.14900
C354        C  0.13315962  0.46477071  0.95101823    -0.24100
H355        H  0.04964307  0.42779225  0.76590008     0.05100
H356        H  0.09334671  0.40367008  0.74938873     0.08300
H357        H  0.08392024  0.96848932  0.74469952     0.08300
H358        H  0.12701735  0.43582666  0.97371757     0.08300
H359        H  0.11867392  0.49427021  0.96494035     0.08300
H360        H  0.16391738  0.47060435  0.95167023     0.05100
C361        C  0.12762437  0.42589127  0.63926365    -0.20700
C362        C  0.13047931  0.46378790  0.66582326    -0.07300
C363        C  0.10324302  0.99968276  0.65721383     0.13600
C364        C  0.07783663  0.99754070  0.62097408    -0.20800
C365        C  0.07665340  0.45982468  0.59455672    -0.07300
C366        C  0.10074082  0.42320785  0.60397775     0.13500
C367        C  0.09924022  0.38191025  0.57625513    -0.24200
H368        H  0.14716232  0.39879724  0.64534188     0.14800
H369        H  0.05907615  0.02538280  0.61469360     0.14900
C370        C  0.10063349  0.03999544  0.68684187    -0.24100
H371        H  0.12103286  0.35749886  0.58718441     0.05100
H372        H  0.10399942  0.38997766  0.53920242     0.08300
H373        H  0.07142652  0.36616131  0.58106260     0.08300
H374        H  0.10960908  0.06948539  0.66648070     0.08300
H375        H  0.11749844  0.03725345  0.71858913     0.08300
H376        H  0.07104034  0.04498789  0.69834910     0.05100
C377        C  0.27565498  0.32801071  0.71662794    -0.20700
C378        C  0.26737983  0.30085196  0.75503414    -0.07300
C379        C  0.24016479  0.31521601  0.78755593     0.13600
C380        C  0.22187274  0.35607300  0.78053328    -0.20800
C381        C  0.23044099  0.38344650  0.74239378    -0.07300
C382        C  0.25721857  0.36877826  0.70951397     0.13500
C383        C  0.26597599  0.39430772  0.66569533    -0.24200
H384        H  0.29598108  0.31675283  0.69123264     0.14800
H385        H  0.20156161  0.36732477  0.80594471     0.14900
C386        C  0.23070754  0.28932243  0.83094493    -0.24100
H387        H  0.26060241  0.37329756  0.63564535     0.05100
H388        H  0.29603454  0.40376691  0.66522362     0.08300
H389        H  0.24851762  0.42451532  0.66138511     0.08300
H390        H  0.23541121  0.31011809  0.86133000     0.08300
H391        H  0.24815154  0.25916404  0.83558776     0.08300
H392        H  0.20068528  0.27973787  0.83046386     0.05100
C393        C  0.22951090  0.08438074  0.71157824    -0.20700
C394        C  0.23119753  0.05058295  0.74570141    -0.07300
C395        C  0.25436186  0.05818737  0.78446548     0.13600
C396        C  0.27301920  0.09871705  0.78823693    -0.20800
C397        C  0.27012041  0.13310271  0.75482376    -0.09900
C398        C  0.24778791  0.12497662  0.71549275     0.13500
C399        C  0.24233471  0.15847385  0.67650501    -0.24200
H400        H  0.21389158  0.08015951  0.68067784     0.14800
H401        H  0.29030270  0.10233083  0.81795357     0.14900
C402        C  0.26053795  0.02402120  0.82257441    -0.24100
H403        H  0.22454887  0.14560687  0.64871215     0.05100
H404        H  0.26935855  0.16739573  0.65987764     0.08300
H405        H  0.22774162  0.18839294  0.68878725     0.08300
H406        H  0.27368668  0.99377756  0.80884811     0.08300
H407        H  0.23397853  0.01580098  0.84070790     0.08300
H408        H  0.27982653  0.03592480  0.84933459     0.05100
C409        C  0.36487156  0.26920745  0.86199816    -0.20700
C410        C  0.36490587  0.22880169  0.83926559    -0.07300
C411        C  0.39197739  0.19620105  0.85168374     0.13600
C412        C  0.41647367  0.20388545  0.88784131    -0.20800
C413        C  0.41654361  0.24394053  0.91124229    -0.07300
C414        C  0.39043598  0.27738051  0.89769136     0.13500
C415        C  0.38857373  0.32120486  0.92102017    -0.24200
H416        H  0.34431742  0.29422884  0.85223982     0.14800
H417        H  0.43677462  0.17828235  0.89672501     0.14900
C418        C  0.39754694  0.15344879  0.82657681    -0.24100
H419        H  0.41530963  0.33908810  0.91526750     0.05100
H420        H  0.38342416  0.31615062  0.95851796     0.08300
H421        H  0.36550961  0.34243499  0.90720721     0.08300
H422        H  0.38157038  0.15171728  0.79422263     0.08300
H423        H  0.38960913  0.12535925  0.84964628     0.08300
H424        H  0.42762811  0.14963928  0.81663140     0.05100
C425        C  0.35610509  0.23051538  0.63679874    -0.20700
C426        C  0.36768239  0.23380283  0.68278591    -0.07300
C427        C  0.40556566  0.24484496  0.69157701     0.13600
C428        C  0.43079113  0.25104591  0.65436197    -0.20800
C429        C  0.41930053  0.24613906  0.60879878    -0.07300
C430        C  0.38145634  0.23647698  0.59978574     0.13500
C431        C  0.36798176  0.23211813  0.55107374    -0.24200
H432        H  0.32713992  0.22238672  0.62985075     0.14800
H433        H  0.46004065  0.25817916  0.66086690     0.14900
C434        C  0.42052545  0.24727698  0.73973606    -0.24100
H435        H  0.33748612  0.22478875  0.54997998     0.05100
H436        H  0.38352620  0.20498962  0.53394851     0.08300
H437        H  0.37287769  0.26339165  0.53150969     0.08300
H438        H  0.41555808  0.21562361  0.75819762     0.08300
H439        H  0.40690450  0.27464370  0.75843719     0.08300
H440        H  0.45127241  0.25326280  0.73981462     0.05100
C441        C  0.86050359  0.49069376  0.86181355    -0.20700
C442        C  0.87314774  0.49632404  0.81603631    -0.07300
C443        C  0.91227426  0.99282941  0.80599322     0.13600
C444        C  0.93738689  0.98375094  0.84223516    -0.20800
C445        C  0.92461295  0.47863464  0.88811498    -0.07300
C446        C  0.88573457  0.48147118  0.89785756     0.13500
C447        C  0.87105404  0.47593228  0.94648551    -0.24200
H448        H  0.83070819  0.49392365  0.86939206     0.14800
H449        H  0.96722403  0.98033576  0.83495998     0.14900
C450        C  0.92749857  0.99827540  0.75769145    -0.24100
H451        H  0.83996095  0.47937497  0.94824820     0.05100
H452        H  0.88338393  0.50129444  0.96865454     0.08300
H453        H  0.87884731  0.44271082  0.96024181     0.08300
H454        H  0.92051816  0.03182398  0.74429726     0.08300
H455        H  0.91520846  0.97329069  0.73515173     0.08300
H456        H  0.95854470  0.99409175  0.75632673     0.05100
C457        C  0.89288094  0.03369888  0.65066556    -0.20700
C458        C  0.86428174  0.50027429  0.65904545    -0.07300
C459        C  0.86457502  0.46226107  0.63176799     0.13600
C460        C  0.89278394  0.45709700  0.59784037    -0.20800
C461        C  0.92076200  0.48899795  0.59014384    -0.07300
C462        C  0.92095739  0.02812999  0.61683399     0.13500
C463        C  0.95187719  0.06173607  0.61344403    -0.24200
H464        H  0.89340679  0.06243613  0.67220971     0.14800
H465        H  0.89245159  0.42809984  0.57667949     0.14900
C466        C  0.83494721  0.42732295  0.63622042    -0.24100
H467        H  0.94927828  0.08667978  0.64079303     0.05100
H468        H  0.95065369  0.07972898  0.57983185     0.08300
H469        H  0.97966259  0.04511392  0.61740111     0.08300
H470        H  0.81275715  0.43532373  0.66178506     0.08300
H471        H  0.84826612  0.39544150  0.64656916     0.08300
H472        H  0.82103781  0.42351871  0.60248993     0.05100
C473        C  0.74253320  0.10284326  0.77790401    -0.20700
C474        C  0.77401024  0.10012287  0.74805555    -0.07300
C475        C  0.78595892  0.14020133  0.72631680     0.13600
C476        C  0.76236292  0.17765577  0.72717399    -0.20800
C477        C  0.73044761  0.18011890  0.75612190    -0.07300
C478        C  0.72169831  0.14228228  0.78353623     0.13500
C479        C  0.69365920  0.14397057  0.82251456    -0.24200
H480        H  0.73533397  0.07453877  0.79934254     0.14800
H481        H  0.77076553  0.20654967  0.70722633     0.14900
C482        C  0.82482076  0.14718574  0.70625667    -0.24100
H483        H  0.69225972  0.11219764  0.84210783     0.05100
H484        H  0.66498930  0.15118613  0.81003386     0.08300
H485        H  0.70296244  0.16917968  0.84677250     0.08300
H486        H  0.82345539  0.14985993  0.66810710     0.08300
H487        H  0.84519412  0.12125893  0.71698258     0.08300
H488        H  0.83642821  0.17835657  0.71924914     0.05100
C489        C  0.76323350  0.35187794  0.77400947    -0.20700
C490        C  0.72714458  0.34954191  0.75447033    -0.07300
C491        C  0.71096081  0.38986080  0.73778622     0.13600
C492        C  0.73335247  0.42757012  0.73289764    -0.20800
C493        C  0.76989753  0.42952617  0.75085935    -0.07300
C494        C  0.78425784  0.39107171  0.77353013     0.13500
C495        C  0.82021049  0.39099271  0.80051504    -0.24200
H496        H  0.77484001  0.32343129  0.79195471     0.14800
H497        H  0.72105966  0.45653700  0.71639870     0.14900
C498        C  0.66974878  0.39616071  0.72719432    -0.24100
H499        H  0.82199133  0.36214122  0.82459202     0.05100
H500        H  0.82148881  0.42080212  0.82177822     0.08300
H501        H  0.84487128  0.38856374  0.77713057     0.08300
H502        H  0.65209039  0.36826128  0.73863934     0.08300
H503        H  0.66610550  0.40227484  0.68965790     0.08300
H504        H  0.65866528  0.42518586  0.74588657     0.05100
C505        C  0.63292081  0.23060600  0.86977457    -0.20700
C506        C  0.62661462  0.25842076  0.83147818    -0.07300
C507        C  0.59327084  0.28440602  0.83021065     0.13600
C508        C  0.56751063  0.28187400  0.86723083    -0.20800
C509        C  0.57365877  0.25343852  0.90526093    -0.07300
C510        C  0.60674465  0.22716331  0.90628133     0.13500
C511        C  0.61559270  0.19697576  0.94671150    -0.24200
H512        H  0.65914718  0.21285612  0.87222072     0.14800
H513        H  0.54215729  0.30200929  0.86611897     0.14900
C514        C  0.58381929  0.31503862  0.79033070    -0.24100
H515        H  0.64366774  0.18100903  0.94297943     0.05100
H516        H  0.59447683  0.17040206  0.94948334     0.08300
H517        H  0.61545131  0.21595806  0.97897950     0.08300
H518        H  0.55613343  0.30603797  0.77614123     0.08300
H519        H  0.60460947  0.31346269  0.76176512     0.08300
H520        H  0.58223415  0.34947577  0.80238911     0.05100
C521        C  0.64132772  0.26876216  0.62954596    -0.20700
C522        C  0.63308660  0.25147292  0.67417012    -0.07300
C523        C  0.59722165  0.23139219  0.68099494     0.13600
C524        C  0.57092040  0.23243317  0.64500444    -0.20800
C525        C  0.57877456  0.25233891  0.60215318    -0.07300
C526        C  0.61478346  0.26993961  0.59395071     0.13500
C527        C  0.62656323  0.28942952  0.54788055    -0.24200
H528        H  0.66893051  0.28189553  0.62192492     0.14800
H529        H  0.54353103  0.21770007  0.65040481     0.14900
C530        C  0.58522474  0.20840732  0.72508345    -0.24100
H531        H  0.63417715  0.32449432  0.55200544     0.05100
H532        H  0.60435520  0.28792721  0.52152108     0.08300
H533        H  0.65148113  0.27114622  0.53461734     0.08300
H534        H  0.58891605  0.23001974  0.75468497     0.08300
H535        H  0.60111026  0.17701751  0.72940171     0.08300
H536        H  0.55503942  0.19941441  0.72486697     0.05100
C537        C  0.70877466  0.80455436  0.25531442     0.86000
C538        C  0.68475959  0.79651810  0.21237910    -0.54200
C539        C  0.66318790  0.75919159  0.21409098     0.09000
C540        C  0.67008585  0.73142987  0.25880275     0.19900
C541        C  0.68140813  0.80125539  0.29619990    -0.54900
C542        C  0.66082563  0.76366403  0.29829517     0.09100
C543        C  0.73299945  0.76213713  0.25882060    -0.54400
C544        C  0.71332221  0.72349201  0.26027647     0.09600
H545        H  0.68392958  0.81986114  0.18361901     0.14200
H546        H  0.65432978  0.70062635  0.26033443    -0.00100
H547        H  0.67763337  0.82746937  0.32080237     0.14500
H548        H  0.76342655  0.76209038  0.25757702     0.14300
C549        C  0.79733491  0.55425825  0.24427559     0.86000
C550        C  0.82724494  0.54859211  0.28164943    -0.54200
C551        C  0.84666970  0.01107805  0.27819950     0.09000
C552        C  0.83450291  0.98081922  0.23905063     0.19900
C553        C  0.81782416  0.54655623  0.19812268    -0.54900
C554        C  0.83716300  0.00959088  0.19482225     0.09100
C555        C  0.77224422  0.01322101  0.24949677    -0.54400
C556        C  0.79177105  0.97379901  0.24734169     0.09600
H557        H  0.83183041  0.57290695  0.30788871     0.14200
H558        H  0.85171218  0.95058911  0.23618834    -0.00100
H559        H  0.81656980  0.56918444  0.16878454     0.14500
H560        H  0.74208142  0.01481306  0.25481907     0.14300
C561        C  0.29178083  0.67643460  0.26097862     0.86000
C562        C  0.32080394  0.68257041  0.22163457    -0.54200
C563        C  0.33989018  0.72140803  0.22148203     0.09000
C564        C  0.32894720  0.75074022  0.26223589     0.19900
C565        C  0.31517247  0.68276300  0.30496825    -0.54900
C566        C  0.33559948  0.72071495  0.30499151     0.09100
C567        C  0.26671435  0.71798922  0.25942423    -0.54400
C568        C  0.28588991  0.75669245  0.25957507     0.09600
H569        H  0.32633888  0.65752616  0.19617914     0.14200
H570        H  0.34372648  0.78263227  0.26265385    -0.00100
H571        H  0.31747163  0.65955005  0.33350247     0.14500
H572        H  0.23623360  0.71708340  0.25901148     0.14300
C573        C  0.20784755  0.50775535  0.24154927     0.86000
C574        C  0.18237052  0.50397707  0.19894337    -0.54200
C575        C  0.16007849  0.96557156  0.19793804     0.09000
C576        C  0.16758067  0.93440029  0.23955564     0.19900
C577        C  0.18010879  0.50210913  0.28225229    -0.54900
C578        C  0.15938673  0.96328108  0.28152048     0.09100
C579        C  0.23096856  0.96452074  0.23916407    -0.54400
C580        C  0.21051934  0.92662598  0.23948019     0.09600
H581        H  0.17917776  0.52832487  0.17162666     0.14200
H582        H  0.15184187  0.90318563  0.23933041    -0.00100
H583        H  0.17639111  0.52683016  0.30847575     0.14500
H584        H  0.26146367  0.96414553  0.23810901     0.14300
O585        O  0.95610114  0.94078450  0.03799320    -0.74900
O586        O  0.03338205  0.92360798  0.44703275    -0.74900
O587        O  0.03145009  0.92374508  0.04057183    -0.75000
O588        O  0.95804560  0.93912426  0.44481160    -0.75000
O589        O  0.96974748  0.51109027  0.44095883    -0.74900
O590        O  0.04161609  0.49818306  0.03545682    -0.74900
O591        O  0.04466768  0.49643188  0.44525551    -0.74900
O592        O  0.96680104  0.51336274  0.03137361    -0.75000
Ni593      Ni  0.99452612  0.93081239  0.49302192     1.25400
Ni594      Ni  0.00589220  0.50805420  0.48955996     1.25400
C595        C  0.94886446  0.98045722  0.05011076     0.87300
C596        C  0.05165055  0.95666245  0.43066371     0.87200
C597        C  0.04810049  0.95820449  0.05454997     0.87300
C598        C  0.95216814  0.97697114  0.42559775     0.87400
O599        O  0.45738526  0.78328320  0.46252564    -0.74900
O600        O  0.53693253  0.78654225  0.05378551    -0.74900
O601        O  0.53363204  0.78649542  0.45841761    -0.75000
O602        O  0.46027625  0.78351898  0.05830293    -0.75000
O603        O  0.46248994  0.71003248  0.05795315    -0.74900
O604        O  0.53767385  0.71325552  0.46197764    -0.74900
O605        O  0.53864377  0.71303950  0.05586311    -0.74900
O606        O  0.46171227  0.71015405  0.46417774    -0.75000
Ni607      Ni  0.49689915  0.78789519  0.50737984     1.25400
Ni608      Ni  0.50005454  0.70934618  0.50981610     1.25400
C609        C  0.44683368  0.74578810  0.44797319     0.87300
C610        C  0.55074219  0.75003200  0.06954078     0.87200
C611        C  0.54792897  0.75024300  0.44414933     0.87300
C612        C  0.44907928  0.74603005  0.07385254     0.87400
C613        C  0.06922838  0.93929118  0.35065759    -0.20700
C614        C  0.08068611  0.95032707  0.39483053    -0.07300
C615        C  0.11866546  0.96022098  0.40253996     0.13600
C616        C  0.14409277  0.96070297  0.36523624    -0.20800
C617        C  0.13229464  0.95295939  0.31997808    -0.07300
C618        C  0.09430224  0.94097426  0.31289767     0.13500
C619        C  0.07866524  0.93338242  0.26581248    -0.24200
H620        H  0.03985077  0.93197029  0.34524399     0.14800
H621        H  0.17316467  0.96907781  0.37115427     0.14900
C622        C  0.13222568  0.97087206  0.45000456    -0.24100
H623        H  0.04779938  0.92824527  0.26699528     0.05100
H624        H  0.09129737  0.90350545  0.25061905     0.08300
H625        H  0.08394284  0.46636472  0.24432852     0.08300
H626        H  0.12629817  0.94287458  0.47411015     0.08300
H627        H  0.11766340  0.00088659  0.46258931     0.08300
H628        H  0.16295077  0.97698864  0.45017316     0.05100
C629        C  0.12558291  0.92259858  0.13927972    -0.20700
C630        C  0.12857385  0.96106716  0.16496862    -0.07300
C631        C  0.10342175  0.49840536  0.15702952     0.13600
C632        C  0.07821865  0.49599112  0.12057243    -0.20800
C633        C  0.07495339  0.95601088  0.09361186    -0.07300
C634        C  0.09883695  0.91942417  0.10386139     0.13500
C635        C  0.09734234  0.87774322  0.07677148    -0.24200
H636        H  0.14499993  0.89551680  0.14600060     0.14800
H637        H  0.05909209  0.52349518  0.11433950     0.14900
C638        C  0.10019927  0.53848464  0.18690410    -0.24100
H639        H  0.11894342  0.85335148  0.08831895     0.05100
H640        H  0.10240725  0.88526382  0.03966684     0.08300
H641        H  0.06940500  0.86226955  0.08146913     0.08300
H642        H  0.10853853  0.56829896  0.16665614     0.08300
H643        H  0.11729790  0.53604253  0.21847959     0.08300
H644        H  0.07057335  0.54264124  0.19864222     0.05100
C645        C  0.27229814  0.82580637  0.21532903    -0.20700
C646        C  0.26655962  0.80032043  0.25562106    -0.07300
C647        C  0.24119247  0.81585394  0.28969945     0.13600
C648        C  0.22241144  0.85641425  0.28255914    -0.20800
C649        C  0.22852940  0.88216767  0.24253415    -0.07300
C650        C  0.25327715  0.86619399  0.20804641     0.13500
C651        C  0.25926437  0.89002859  0.16254364    -0.24200
H652        H  0.29109678  0.81354392  0.18874880     0.14800
H653        H  0.20360485  0.86866314  0.30913611     0.14900
C654        C  0.23414092  0.79135593  0.33460928    -0.24100
H655        H  0.25184468  0.86794041  0.13407866     0.05100
H656        H  0.28925970  0.89926143  0.15872859     0.08300
H657        H  0.24172890  0.92024470  0.15875279     0.08300
H658        H  0.24094819  0.81293503  0.36372695     0.08300
H659        H  0.25142875  0.76097375  0.33851458     0.08300
H660        H  0.20404077  0.78223584  0.33720810     0.05100
C661        C  0.22991671  0.58399906  0.21195369    -0.20700
C662        C  0.23156038  0.55015382  0.24595382    -0.07300
C663        C  0.25433188  0.55777687  0.28509339     0.13600
C664        C  0.27263682  0.59846250  0.28935775    -0.20800
C665        C  0.26982144  0.63287575  0.25600413    -0.09900
C666        C  0.24783727  0.62474326  0.21635032     0.13500
C667        C  0.24227525  0.65844015  0.17757992    -0.24200
H668        H  0.21444904  0.57973924  0.18094422     0.14800
H669        H  0.28953672  0.60221513  0.31936285     0.14900
C670        C  0.26043987  0.52349042  0.32311231    -0.24100
H671        H  0.22485371  0.64550046  0.14948068     0.05100
H672        H  0.26929224  0.66794621  0.16131332     0.08300
H673        H  0.22722085  0.68800744  0.18998872     0.08300
H674        H  0.27412886  0.49355836  0.30939392     0.08300
H675        H  0.23378464  0.51470068  0.34072224     0.08300
H676        H  0.27925027  0.53554222  0.35030205     0.05100
C677        C  0.36565834  0.76829458  0.36330923    -0.20700
C678        C  0.36513632  0.72823621  0.33998890    -0.07300
C679        C  0.39237982  0.69540492  0.35119534     0.13600
C680        C  0.41757103  0.70246925  0.38684832    -0.20800
C681        C  0.41811985  0.74213324  0.41092251    -0.07300
C682        C  0.39182924  0.77581396  0.39853911     0.13500
C683        C  0.39031026  0.81916873  0.42280580    -0.24200
H684        H  0.34501106  0.79351521  0.35445923     0.14800
H685        H  0.43796033  0.67670303  0.39485320     0.14900
C686        C  0.39738585  0.65309993  0.32514987    -0.24100
H687        H  0.41696276  0.83716874  0.41683357     0.05100
H688        H  0.38569539  0.81337356  0.46032379     0.08300
H689        H  0.36704837  0.84063966  0.40993125     0.08300
H690        H  0.38114039  0.65225119  0.29292878     0.08300
H691        H  0.38937767  0.62468350  0.34772983     0.08300
H692        H  0.42734621  0.64912681  0.31473329     0.05100
C693        C  0.35737978  0.72594907  0.13831408    -0.20700
C694        C  0.36782745  0.73278631  0.18424733    -0.07300
C695        C  0.40511370  0.74637183  0.19310226     0.13600
C696        C  0.43058495  0.75228547  0.15606077    -0.20800
C697        C  0.42021186  0.74390066  0.11072236    -0.07300
C698        C  0.38316596  0.73090568  0.10162974     0.13500
C699        C  0.37093008  0.72210108  0.05316543    -0.24200
H700        H  0.32896568  0.71573518  0.13116555     0.14800
H701        H  0.45929433  0.76180216  0.16265198     0.14900
C702        C  0.41950160  0.75159308  0.24122792    -0.24100
H703        H  0.34087912  0.71268809  0.05194365     0.05100
H704        H  0.38800225  0.69475346  0.03870755     0.08300
H705        H  0.37478606  0.75216049  0.03124030     0.08300
H706        H  0.41516999  0.72063130  0.26119724     0.08300
H707        H  0.40522842  0.77945082  0.25833499     0.08300
H708        H  0.45008658  0.75856401  0.24137213     0.05100
C709        C  0.86103203  0.99288523  0.36014878    -0.20700
C710        C  0.87423440  0.99845230  0.31460156    -0.07300
C711        C  0.91364606  0.49707954  0.30799059     0.13600
C712        C  0.93855996  0.48958004  0.34478744    -0.20800
C713        C  0.92482643  0.98176072  0.38773528    -0.07300
C714        C  0.88583645  0.98424986  0.39672847     0.13500
C715        C  0.87057305  0.97899924  0.44512592    -0.24200
H716        H  0.83111780  0.99576305  0.36712311     0.14800
H717        H  0.96864665  0.49037868  0.33851584     0.14900
C718        C  0.92913857  0.50626295  0.26036948    -0.24100
H719        H  0.83944959  0.98221209  0.44627731     0.05100
H720        H  0.88246278  0.00466560  0.46728107     0.08300
H721        H  0.87838752  0.94595879  0.45934394     0.08300
H722        H  0.91949697  0.53931229  0.24807400     0.08300
H723        H  0.91927492  0.48087750  0.23648790     0.08300
H724        H  0.96036283  0.50570285  0.25972947     0.05100
C725        C  0.89326317  0.53260037  0.14928472    -0.20700
C726        C  0.86428759  0.00144895  0.15642222    -0.07300
C727        C  0.86361442  0.96355166  0.12903367     0.13600
C728        C  0.89148200  0.95767320  0.09482206    -0.20800
C729        C  0.91978020  0.98905750  0.08650374    -0.07300
C730        C  0.92079011  0.52745905  0.11471553     0.13500
C731        C  0.94996481  0.56291940  0.10882692    -0.24200
H732        H  0.89332472  0.56189587  0.17002478     0.14800
H733        H  0.89063895  0.92850858  0.07394776     0.14900
C734        C  0.83323517  0.92953234  0.13367398    -0.24100
H735        H  0.94659438  0.58894924  0.13493614     0.05100
H736        H  0.94729565  0.57925371  0.07444879     0.08300
H737        H  0.97855916  0.54837325  0.11278127     0.08300
H738        H  0.81139502  0.93816053  0.15945728     0.08300
H739        H  0.84587832  0.89722213  0.14379608     0.08300
H740        H  0.81900151  0.92630403  0.10006467     0.05100
C741        C  0.74489286  0.60190281  0.27808704    -0.20700
C742        C  0.77607503  0.59886046  0.24793668    -0.07300
C743        C  0.78835218  0.63883485  0.22626976     0.13600
C744        C  0.76505286  0.67655632  0.22728254    -0.20800
C745        C  0.73327784  0.67930318  0.25646600    -0.07300
C746        C  0.72453974  0.64155486  0.28402329     0.13500
C747        C  0.69725356  0.64354736  0.32365145    -0.24200
H748        H  0.73765087  0.57367989  0.29962635     0.14800
H749        H  0.77360482  0.70536087  0.20730502     0.14900
C750        C  0.82730817  0.64540829  0.20631858    -0.24100
H751        H  0.69596053  0.61186977  0.34342877     0.05100
H752        H  0.66843712  0.65086118  0.31176209     0.08300
H753        H  0.70729834  0.66873017  0.34754455     0.08300
H754        H  0.82604502  0.64809270  0.16816652     0.08300
H755        H  0.84746115  0.61926533  0.21711598     0.08300
H756        H  0.83913943  0.67644102  0.21935984     0.05100
C757        C  0.76676701  0.85147624  0.27186232    -0.20700
C758        C  0.73001760  0.84902572  0.25416587    -0.07300
C759        C  0.71316586  0.88942090  0.23872082     0.13600
C760        C  0.73512333  0.92744538  0.23350591    -0.20800
C761        C  0.77212821  0.92967734  0.24996209    -0.07300
C762        C  0.78749739  0.89094548  0.27111955     0.13500
C763        C  0.82438961  0.89064994  0.29615566    -0.24200
H764        H  0.77920562  0.82292222  0.28868976     0.14800
H765        H  0.72212655  0.95638680  0.21783523     0.14900
C766        C  0.67171477  0.89551286  0.22963763    -0.24100
H767        H  0.82684163  0.86179703  0.32014172     0.05100
H768        H  0.82665337  0.92041810  0.31733240     0.08300
H769        H  0.84814897  0.88798477  0.27140436     0.08300
H770        H  0.65458098  0.86711349  0.24058244     0.08300
H771        H  0.66721903  0.90266783  0.19243379     0.08300
H772        H  0.66078902  0.92379283  0.24965260     0.05100
C773        C  0.63416329  0.72668630  0.36877019    -0.20700
C774        C  0.63000274  0.75814692  0.33321050    -0.07300
C775        C  0.59820509  0.78669377  0.33411197     0.13600
C776        C  0.57230478  0.78351204  0.37087136    -0.20800
C777        C  0.57629505  0.75146377  0.40613599    -0.07300
C778        C  0.60754642  0.72223604  0.40465197     0.13500
C779        C  0.61405238  0.68748636  0.44167437    -0.24200
H780        H  0.65908361  0.70649716  0.36966877     0.14800
H781        H  0.54824973  0.80575636  0.37139114     0.14900
C782        C  0.59009134  0.82016648  0.29633759    -0.24100
H783        H  0.64101187  0.66940959  0.43632281     0.05100
H784        H  0.59122748  0.66287799  0.44133260     0.08300
H785        H  0.61497228  0.70300613  0.47593503     0.08300
H786        H  0.56138222  0.81494358  0.28296230     0.08300
H787        H  0.60965476  0.81746805  0.26666373     0.08300
H788        H  0.59166047  0.85390473  0.31016690     0.05100
C789        C  0.64391168  0.76433120  0.13106033    -0.20700
C790        C  0.63500142  0.75008137  0.17653845    -0.07300
C791        C  0.59837103  0.73247305  0.18465863     0.13600
C792        C  0.57191265  0.73317107  0.14883378    -0.20800
C793        C  0.58052605  0.75007839  0.10485829    -0.07300
C794        C  0.61737495  0.76464898  0.09543287     0.13500
C795        C  0.62992642  0.78001811  0.04805490    -0.24200
H796        H  0.67199257  0.77581216  0.12296802     0.14800
H797        H  0.54385659  0.72063721  0.15525149     0.14900
C798        C  0.58567348  0.71301483  0.23021857    -0.24100
H799        H  0.63946593  0.81466129  0.04942477     0.05100
H800        H  0.60744734  0.77835179  0.02203661     0.08300
H801        H  0.65372768  0.75901260  0.03619068     0.08300
H802        H  0.59055156  0.73629044  0.25801207     0.08300
H803        H  0.60021344  0.68109385  0.23680038     0.08300
H804        H  0.55511112  0.70585657  0.23077687     0.05100
C805        C  0.70817710  0.80579810  0.75494021     0.86000
C806        C  0.68452980  0.79749206  0.71180016    -0.54200
C807        C  0.66268438  0.76044532  0.71365943     0.09000
C808        C  0.66921964  0.73292644  0.75867741     0.19900
C809        C  0.68054032  0.80302923  0.79553522    -0.54900
C810        C  0.65979761  0.76559113  0.79782333     0.09100
C811        C  0.73228451  0.76332457  0.75910070    -0.54400
C812        C  0.71249547  0.72470614  0.76059733     0.09600
H813        H  0.68417098  0.82045219  0.68271099     0.14200
H814        H  0.65329881  0.70223085  0.76027337    -0.00100
H815        H  0.67683217  0.82942721  0.81994000     0.14500
H816        H  0.76274026  0.76335617  0.75827379     0.14300
C817        C  0.79564407  0.55435834  0.74446049     0.86000
C818        C  0.82581918  0.54831886  0.78160423    -0.54200
C819        C  0.84580622  0.01148821  0.77977100     0.09000
C820        C  0.83396159  0.98147762  0.74030297     0.19900
C821        C  0.81583068  0.54635680  0.69815744    -0.54900
C822        C  0.83708772  0.01049368  0.69630664     0.09100
C823        C  0.77159064  0.01380863  0.74997994    -0.54400
C824        C  0.79122295  0.97452485  0.74800235     0.09600
H825        H  0.83079722  0.57260996  0.80774269     0.14200
H826        H  0.85093626  0.95103490  0.73748022    -0.00100
H827        H  0.81480175  0.56905250  0.66887017     0.14500
H828        H  0.74133727  0.01516638  0.75462724     0.14300
C829        C  0.29271891  0.67761486  0.76087885     0.86000
C830        C  0.32112842  0.68421905  0.72092782    -0.54200
C831        C  0.34009327  0.72318021  0.72066134     0.09000
C832        C  0.32963829  0.75212657  0.76193199     0.19900
C833        C  0.31686688  0.68370090  0.80431836    -0.54900
C834        C  0.33702949  0.72186234  0.80431306     0.09100
C835        C  0.26751703  0.71906727  0.76017057    -0.54400
C836        C  0.28653503  0.75789247  0.76026058     0.09600
H837        H  0.32644652  0.65933854  0.69524272     0.14200
H838        H  0.34425277  0.78410438  0.76232604    -0.00100
H839        H  0.31983575  0.66017799  0.83249104     0.14500
H840        H  0.23703864  0.71797537  0.76003766     0.14300
C841        C  0.20881170  0.50836558  0.74217669     0.86000
C842        C  0.18336844  0.50462527  0.69954359    -0.54200
C843        C  0.16023980  0.96773803  0.69859460     0.09000
C844        C  0.16785863  0.93549699  0.73927964     0.19900
C845        C  0.18114601  0.50150210  0.78288164    -0.54900
C846        C  0.15980588  0.96333427  0.78201123     0.09100
C847        C  0.23132202  0.96537783  0.73975419    -0.54400
C848        C  0.21081140  0.92756972  0.73897125     0.09600
H849        H  0.17963311  0.52934412  0.67268634     0.14200
H850        H  0.15194691  0.90440153  0.73836556    -0.00100
H851        H  0.17695103  0.52577898  0.80944716     0.14500
H852        H  0.26183050  0.96496868  0.73933272     0.14300
O853        O  0.95642652  0.94333416  0.53881399    -0.74900
O854        O  0.03328538  0.91945648  0.94672331    -0.74900
O855        O  0.03185219  0.92775076  0.54080772    -0.75000
O856        O  0.95798536  0.93639355  0.94419446    -0.75000
O857        O  0.97011339  0.50818461  0.93797447    -0.74900
O858        O  0.04143930  0.50001248  0.53807384    -0.74900
O859        O  0.04511122  0.49298636  0.94281246    -0.74900
O860        O  0.96654259  0.51463682  0.53457014    -0.75000
Ni861      Ni  0.99429167  0.92742456  0.99252024     1.25400
Ni862      Ni  0.00622328  0.50566336  0.98666248     1.25400
C863        C  0.94890355  0.98280121  0.55133673     0.87300
C864        C  0.05198696  0.95222095  0.93041716     0.87200
C865        C  0.04820159  0.96238488  0.55481972     0.87300
C866        C  0.95243194  0.97441044  0.92520291     0.87400
O867        O  0.45733953  0.78404760  0.96415862    -0.74900
O868        O  0.53684028  0.78689656  0.55212657    -0.74900
O869        O  0.53355382  0.78767163  0.96002253    -0.75000
O870        O  0.46015074  0.78417865  0.55641707    -0.75000
O871        O  0.46207975  0.71066090  0.55717885    -0.74900
O872        O  0.53767865  0.71443101  0.96230633    -0.74900
O873        O  0.53831487  0.71341141  0.55552678    -0.74900
O874        O  0.46182831  0.71093531  0.96478320    -0.75000
Ni875      Ni  0.49689466  0.78813324  0.00913886     1.25400
Ni876      Ni  0.50026055  0.70959802  0.01029240     1.25400
C877        C  0.44702169  0.74672262  0.94887262     0.87300
C878        C  0.55050229  0.75059503  0.56858679     0.87200
C879        C  0.54784112  0.75168824  0.94503443     0.87300
C880        C  0.44869305  0.74695470  0.57237139     0.87400
C881        C  0.06923851  0.93810258  0.84967152    -0.20700
C882        C  0.08098960  0.94569659  0.89457531    -0.07300
C883        C  0.11924254  0.95364777  0.90292696     0.13600
C884        C  0.14463313  0.95613863  0.86560180    -0.20800
C885        C  0.13256819  0.95184483  0.81990308    -0.07300
C886        C  0.09432685  0.94149684  0.81205385     0.13500
C887        C  0.07850153  0.93773696  0.76447443    -0.24200
H888        H  0.03965344  0.93239580  0.84374186     0.14800
H889        H  0.17389522  0.96326937  0.87197102     0.14900
C890        C  0.13309225  0.96017943  0.95115156    -0.24100
H891        H  0.04757796  0.93303021  0.76530507     0.05100
H892        H  0.09082249  0.90903011  0.74672388     0.08300
H893        H  0.08556975  0.46287929  0.74357747     0.08300
H894        H  0.12670425  0.93056696  0.97277610     0.08300
H895        H  0.11907694  0.98937775  0.96637912     0.08300
H896        H  0.16393403  0.96542627  0.95172543     0.05100
C897        C  0.12549669  0.92590230  0.63941396    -0.20700
C898        C  0.12875426  0.96412264  0.66538648    -0.07300
C899        C  0.10431006  0.49882982  0.65864446     0.13600
C900        C  0.07878668  0.49680955  0.62252200    -0.20800
C901        C  0.07532580  0.96017079  0.59362840    -0.07300
C902        C  0.09891363  0.92328976  0.60378817     0.13500
C903        C  0.09735377  0.88183142  0.57633289    -0.24200
H904        H  0.14461608  0.89852376  0.64608933     0.14800
H905        H  0.05955903  0.52433857  0.61692658     0.14900
C906        C  0.10102814  0.53825318  0.68944348    -0.24100
H907        H  0.11884275  0.85725000  0.58775177     0.05100
H908        H  0.10257087  0.88963635  0.53930122     0.08300
H909        H  0.06937536  0.86641331  0.58080790     0.08300
H910        H  0.10916847  0.56852079  0.66983748     0.08300
H911        H  0.11821343  0.53521262  0.72090830     0.08300
H912        H  0.07143026  0.54198583  0.70144299     0.05100
C913        C  0.27506238  0.82826847  0.71735954    -0.20700
C914        C  0.26708994  0.80148859  0.75615003    -0.07300
C915        C  0.23948027  0.81573163  0.78825404     0.13600
C916        C  0.22049447  0.85604865  0.78043002    -0.20800
C917        C  0.22879275  0.88305975  0.74192083    -0.07300
C918        C  0.25598704  0.86851278  0.70948528     0.13500
C919        C  0.26461488  0.89368276  0.66540155    -0.24200
H920        H  0.29565588  0.81709192  0.69224967     0.14800
H921        H  0.19996805  0.86727812  0.80559567     0.14900
C922        C  0.23037378  0.79033948  0.83206692    -0.24100
H923        H  0.25992530  0.87211488  0.63560758     0.05100
H924        H  0.29446754  0.90396742  0.66515125     0.08300
H925        H  0.24658471  0.92334779  0.66043936     0.08300
H926        H  0.23455905  0.81179876  0.86206416     0.08300
H927        H  0.24840299  0.76073735  0.83732485     0.08300
H928        H  0.20055987  0.77992684  0.83164791     0.05100
C929        C  0.23007674  0.58522980  0.71287125    -0.20700
C930        C  0.23196995  0.55129473  0.74681742    -0.07300
C931        C  0.25481291  0.55913537  0.78584016     0.13600
C932        C  0.27327244  0.59980225  0.78978311    -0.20800
C933        C  0.27060435  0.63404449  0.75620801    -0.09900
C934        C  0.24818118  0.62593359  0.71691776     0.13500
C935        C  0.24238236  0.65959372  0.67815059    -0.24200
H936        H  0.21437654  0.58102804  0.68200497     0.14800
H937        H  0.29006796  0.60376069  0.81986617     0.14900
C938        C  0.26078595  0.52511007  0.82411814    -0.24100
H939        H  0.22434932  0.64684020  0.65053583     0.05100
H940        H  0.26925176  0.66859722  0.66120043     0.08300
H941        H  0.22788852  0.68945375  0.69075193     0.08300
H942        H  0.27402572  0.49482673  0.81060873     0.08300
H943        H  0.23412267  0.51694222  0.84204273     0.08300
H944        H  0.27990026  0.53713085  0.85100543     0.05100
C945        C  0.36653370  0.76945957  0.86316372    -0.20700
C946        C  0.36658438  0.72968732  0.83926680    -0.07300
C947        C  0.39429211  0.69729162  0.85005681     0.13600
C948        C  0.41907311  0.70418624  0.88619630    -0.20800
C949        C  0.41882511  0.74338126  0.91114126    -0.07300
C950        C  0.39240190  0.77691897  0.89877862     0.13500
C951        C  0.39049426  0.82007065  0.92338682    -0.24200
H952        H  0.34565449  0.79446871  0.85449427     0.14800
H953        H  0.43975187  0.67866893  0.89394501     0.14900
C954        C  0.40019040  0.65569339  0.82306943    -0.24100
H955        H  0.41715128  0.83820212  0.91795274     0.05100
H956        H  0.38554347  0.81398420  0.96079637     0.08300
H957        H  0.36730202  0.84154185  0.91032279     0.08300
H958        H  0.38357699  0.65477972  0.79113097     0.08300
H959        H  0.39322573  0.62657198  0.84517988     0.08300
H960        H  0.43013638  0.65310624  0.81212300     0.05100
C961        C  0.35707706  0.72750511  0.63724287    -0.20700
C962        C  0.36766200  0.73486596  0.68305398    -0.07300
C963        C  0.40486149  0.74907677  0.69146678     0.13600
C964        C  0.43016920  0.75467017  0.65424203    -0.20800
C965        C  0.41975799  0.74548189  0.60914536    -0.07300
C966        C  0.38273134  0.73220856  0.60036416     0.13500
C967        C  0.37040179  0.72279757  0.55206969    -0.24200
H968        H  0.32870306  0.71697204  0.63036657     0.14800
H969        H  0.45883937  0.76452735  0.66053693     0.14900
C970        C  0.41943423  0.75533952  0.73933741    -0.24100
H971        H  0.34037350  0.71324702  0.55108880     0.05100
H972        H  0.38751759  0.69535801  0.53787546     0.08300
H973        H  0.37411334  0.75263150  0.52976551     0.08300
H974        H  0.41515297  0.72484647  0.76008542     0.08300
H975        H  0.40532713  0.78367532  0.75577998     0.08300
H976        H  0.45003518  0.76224382  0.73914429     0.05100
C977        C  0.86090882  0.99462941  0.86185569    -0.20700
C978        C  0.87355899  0.99869889  0.81592140    -0.07300
C979        C  0.91202037  0.49216469  0.80618525     0.13600
C980        C  0.93732325  0.48370248  0.84240545    -0.20800
C981        C  0.92464211  0.97998662  0.88802094    -0.07300
C982        C  0.88596634  0.98507883  0.89795290     0.13500
C983        C  0.87136539  0.98150421  0.94679560    -0.24200
H984        H  0.83125086  0.99925744  0.86949486     0.14800
H985        H  0.96725454  0.48176469  0.83517565     0.14900
C986        C  0.92709193  0.49864266  0.75795457    -0.24100
H987        H  0.84042552  0.98657634  0.94867060     0.05100
H988        H  0.88475958  0.00677374  0.96814050     0.08300
H989        H  0.87801074  0.94828129  0.96144178     0.08300
H990        H  0.91939753  0.53214320  0.74503737     0.08300
H991        H  0.91523329  0.47357772  0.73513729     0.08300
H992        H  0.95820496  0.49534160  0.75648611     0.05100
C993        C  0.89216502  0.53201937  0.65155841    -0.20700
C994        C  0.86458879  0.00246809  0.65824710    -0.07300
C995        C  0.86396528  0.96482064  0.63046942     0.13600
C996        C  0.89179419  0.95932858  0.59613761    -0.20800
C997        C  0.92022875  0.99063416  0.58837783    -0.07300
C998        C  0.92067038  0.52671900  0.61828182     0.13500
C999        C  0.95113669  0.56090510  0.61517251    -0.24200
H1000       H  0.89205245  0.56098080  0.67279481     0.14800
H1001       H  0.89080674  0.93054702  0.57470969     0.14900
C1002       C  0.83370923  0.93063069  0.63483065    -0.24100
H1003       H  0.94792096  0.58592961  0.64236100     0.05100
H1004       H  0.94999860  0.57873772  0.58146741     0.08300
H1005       H  0.97909826  0.54482718  0.61963023     0.08300
H1006       H  0.81183862  0.93893766  0.66068067     0.08300
H1007       H  0.84648702  0.89832177  0.64470753     0.08300
H1008       H  0.81949381  0.92755505  0.60119527     0.05100
C1009       C  0.74349467  0.60264200  0.77824510    -0.20700
C1010       C  0.77469907  0.59930120  0.74816858    -0.07300
C1011       C  0.78717787  0.63923692  0.72650569     0.13600
C1012       C  0.76422478  0.67731663  0.72784096    -0.20800
C1013       C  0.73238122  0.68031875  0.75690992    -0.07300
C1014       C  0.72335999  0.64247882  0.78422434     0.13500
C1015       C  0.69592748  0.64446943  0.82366069    -0.24200
H1016       H  0.73601635  0.57444620  0.79969342     0.14800
H1017       H  0.77300924  0.70611847  0.70801427     0.14900
C1018       C  0.82597467  0.64530094  0.70592605    -0.24100
H1019       H  0.69427983  0.61267775  0.84318794     0.05100
H1020       H  0.66723763  0.65214078  0.81154385     0.08300
H1021       H  0.70608917  0.66933631  0.84783840     0.08300
H1022       H  0.82431460  0.64785958  0.66779114     0.08300
H1023       H  0.84600959  0.61896614  0.71653153     0.08300
H1024       H  0.83821926  0.67624284  0.71862449     0.05100
C1025       C  0.76530674  0.85297031  0.77394981    -0.20700
C1026       C  0.72948084  0.85014904  0.75374526    -0.07300
C1027       C  0.71330362  0.89023572  0.73634729     0.13600
C1028       C  0.73555413  0.92797682  0.73126242    -0.20800
C1029       C  0.77167850  0.93050921  0.75016306    -0.07300
C1030       C  0.78597261  0.89248553  0.77367339     0.13500
C1031       C  0.82128559  0.89340704  0.80185603    -0.24200
H1032       H  0.77684158  0.82469226  0.79230008     0.14800
H1033       H  0.72334299  0.95669403  0.71416924     0.14900
C1034       C  0.67215680  0.89651226  0.72552366    -0.24100
H1035       H  0.82343194  0.86423322  0.82545165     0.05100
H1036       H  0.82116271  0.92296156  0.82364406     0.08300
H1037       H  0.84653174  0.89246515  0.77933323     0.08300
H1038       H  0.65449075  0.86883442  0.73731025     0.08300
H1039       H  0.66859321  0.90218145  0.68791202     0.08300
H1040       H  0.66105716  0.92577238  0.74381804     0.05100
C1041       C  0.63303430  0.72802321  0.86785592    -0.20700
C1042       C  0.62914599  0.76031924  0.83310072    -0.07300
C1043       C  0.59801607  0.78982829  0.83535603     0.13600
C1044       C  0.57242750  0.78650138  0.87248208    -0.20800
C1045       C  0.57606866  0.75345547  0.90682007    -0.07300
C1046       C  0.60677282  0.72352592  0.90411321     0.13500
C1047       C  0.61317000  0.68788641  0.94023950    -0.24200
H1048       H  0.65750481  0.70723349  0.86787975     0.14800
H1049       H  0.54885141  0.80939114  0.87395911     0.14900
C1050       C  0.59025222  0.82450175  0.79866025    -0.24100
H1051       H  0.63981844  0.66942630  0.93407243     0.05100
H1052       H  0.59001183  0.66372220  0.93967841     0.08300
H1053       H  0.61468318  0.70264103  0.97484022     0.08300
H1054       H  0.56123126  0.82064011  0.78572180     0.08300
H1055       H  0.60934424  0.82187826  0.76852205     0.08300
H1056       H  0.59287769  0.85777284  0.81338168     0.05100
C1057       C  0.64345425  0.76564767  0.63051418    -0.20700
C1058       C  0.63444886  0.75159062  0.67605533    -0.07300
C1059       C  0.59761818  0.73463398  0.68426758     0.13600
C1060       C  0.57137987  0.73471739  0.64820531    -0.20800
C1061       C  0.58016035  0.75113600  0.60408011    -0.07300
C1062       C  0.61694858  0.76602632  0.59482706     0.13500
C1063       C  0.62944855  0.78194746  0.54761124    -0.24200
H1064       H  0.67156441  0.77701831  0.62241187     0.14800
H1065       H  0.54327322  0.72234876  0.65463956     0.14900
C1066       C  0.58432473  0.71710487  0.73039498    -0.24100
H1067       H  0.63863201  0.81670917  0.54934983     0.05100
H1068       H  0.60705076  0.78021753  0.52149753     0.08300
H1069       H  0.65348092  0.76138601  0.53560820     0.08300
H1070       H  0.58942388  0.74137179  0.75720900     0.08300
H1071       H  0.59822864  0.68510297  0.73843845     0.08300
H1072       H  0.55363395  0.71070754  0.73092498     0.05100
loop_ 
_geom_bond_atom_site_label_1 
_geom_bond_atom_site_label_2 
_geom_bond_distance 
_geom_bond_site_symmetry_2 
_ccdc_geom_bond_type 
C1            C2   1.542       .  S
C1            C7   1.542       .  S
C1            C5   1.528       .  S
C1          C222   1.551       .  S
C2            H9   1.083       .  S
C2            C3   1.376       .  D
C3            C4   1.555       .  S
C3          C254   1.524       .  S
C4            C8   1.556       .  S
C4            C6   1.554       .  S
C4           H10   1.094       .  S
C5           H11   1.086       .  S
C5            C6   1.361       .  D
C6          C238   1.493       .  S
C7           H12   1.083       .  S
C7            C8   1.371       .  D
C8          C209   1.516       .  S
C13          C14   1.534       .  S
C13          C17   1.540       .  S
C13         C555   1.547       .  S
C13         C206   1.551       .  S
C14          H21   1.086       .  S
C14         C551   1.365       .  D
C15          C16   1.544       .  S
C15         C550   1.364       .  D
C15         C174   1.489       .  S
C16          C20   1.554       .  S
C16          C18   1.541       .  S
C16          H22   1.102       .  S
C17          H23   1.084       .  S
C17         C554   1.361       .  D
C18         C553   1.362       .  D
C18         C190   1.491       .  S
C19         C549   1.546       .  S
C19          H24   1.083       .  S
C19          C20   1.379       .  D
C20         C225   1.516       .  S
C25          C26   1.545       .  S
C25          C31   1.538       .  S
C25          C29   1.548       .  S
C25         C129   1.556       .  S
C26          H33   1.086       .  S
C26          C27   1.367       .  D
C27          C28   1.536       .  S
C27         C158   1.494       .  S
C28          C32   1.543       .  S
C28          C30   1.542       .  S
C28          H34   1.110       .  S
C29          H35   1.079       .  S
C29          C30   1.366       .  D
C30         C142   1.492       .  S
C31          H36   1.085       .  S
C31          C32   1.367       .  D
C32         C110   1.487       .  S
C37          C38   1.547       .  S
C37          C41   1.540       .  S
C37         C579   1.538   1_545  S
C37         C126   1.556       .  S
C38          H45   1.078       .  S
C38         C575   1.366   1_545  D
C39          C40   1.543       .  S
C39         C574   1.365       .  D
C39          C94   1.492       .  S
C40          C44   1.543       .  S
C40          C42   1.540       .  S
C40          H46   1.106       .  S
C41          H47   1.086       .  S
C41         C578   1.368   1_545  D
C42         C577   1.368       .  D
C42          C81   1.496       .  S
C43         C573   1.536       .  S
C43          H48   1.085       .  S
C43          C44   1.367       .  D
C44         C113   1.488       .  S
O49          C59   1.284       .  A
O49        Ni325   1.929   1_554  S
O50          C60   1.281       .  A
O50         Ni57   1.924   1_455  S
O51          C61   1.283       .  A
O51        Ni325   1.932   1_454  S
O52          C62   1.283       .  A
O52         Ni57   1.929       .  S
O53         C598   1.280   1_545  A
O53         Ni58   1.920   1_655  S
O54         C597   1.282       .  A
O54        Ni326   1.910   1_564  S
O55         C596   1.279       .  A
O55         Ni58   1.911   1_565  S
O56         C595   1.280   1_545  A
O56        Ni326   1.914   1_654  S
Ni57        O317   1.927       .  S
Ni57        O319   1.931   1_655  S
Ni57       Ni594   2.386   1_655  S
Ni58        O322   1.912       .  S
Ni58        O324   1.917   1_455  S
Ni58       Ni593   2.386   1_445  S
C59         O592   1.281       .  A
C59         C193   1.496       .  S
C60         O591   1.279       .  A
C60          C78   1.471       .  S
C61         O590   1.282       .  A
C61          C97   1.492       .  S
C62         O589   1.280       .  A
C62         C177   1.479       .  S
O63          C73   1.283       .  A
O63         Ni71   1.933       .  S
O64          C74   1.286       .  A
O64        Ni339   1.938       .  S
O65          C75   1.282       .  A
O65         Ni71   1.923       .  S
O66          C76   1.282       .  A
O66        Ni339   1.928       .  S
O67          C76   1.280       .  A
O67        Ni340   1.917       .  S
O68          C75   1.282       .  A
O68         Ni72   1.923       .  S
O69          C74   1.279       .  A
O69        Ni340   1.912       .  S
O70          C73   1.282       .  A
O70         Ni72   1.909       .  S
Ni71        O332   1.935       .  S
Ni71        O334   1.926       .  S
Ni71        Ni72   2.386       .  S
Ni72        O335   1.918       .  S
Ni72        O337   1.914       .  S
C73         C145   1.497       .  S
C74         C257   1.483       .  S
C75         C241   1.488       .  S
C76         C161   1.476       .  S
C77          C78   1.398       .  A
C77          C82   1.406       .  A
C77          H84   1.085       .  S
C78          C79   1.408       .  A
C79          C86   1.507       .  S
C79          C80   1.403       .  A
C80          C81   1.408       .  A
C80          H85   1.084       .  S
C81          C82   1.421       .  A
C82          C83   1.504       .  S
C83          H87   1.111       .  S
C83          H88   1.106       .  S
C83         H625   1.103       .  S
C86          H90   1.110       .  S
C86          H91   1.110       .  S
C86          H92   1.111       .  S
H89         C619   1.104       .  S
C93          C94   1.404       .  A
C93          C98   1.413       .  A
C93         H100   1.084       .  S
C94         C631   1.420       .  A
C95         C102   1.511   1_565  S
C95          C96   1.396       .  A
C95         C630   1.419       .  A
C96         C633   1.402       .  A
C96         H101   1.085   1_565  S
C97          C98   1.420       .  A
C97         C632   1.403       .  A
C98          C99   1.506       .  S
C99         H103   1.111       .  S
C99         H104   1.109       .  S
C99         H105   1.110       .  S
C102        H106   1.110       .  S
C102        H107   1.106       .  S
C102        H108   1.111       .  S
C109        C110   1.403       .  A
C109        C114   1.406       .  A
C109        H116   1.085       .  S
C110        C111   1.416       .  A
C111        C118   1.507       .  S
C111        C112   1.407       .  A
C112        C113   1.403       .  A
C112        H117   1.085       .  S
C113        C114   1.416       .  A
C114        C115   1.507       .  S
C115        H119   1.111       .  S
C115        H120   1.110       .  S
C115        H121   1.108       .  S
C118        H122   1.111       .  S
C118        H123   1.108       .  S
C118        H124   1.110       .  S
C125        C126   1.414       .  A
C125        C130   1.410       .  A
C125        H132   1.069       .  S
C126        C127   1.426       .  A
C127        C134   1.517       .  S
C127        C128   1.409       .  A
C128        C129   1.414       .  A
C128        H133   1.071       .  S
C129        C130   1.425       .  A
C130        C131   1.517       .  S
C131        H135   1.110       .  S
C131        H136   1.106       .  S
C131        H137   1.105       .  S
C134        H138   1.105   1_545  S
C134        H139   1.105       .  S
C134        H140   1.110       .  S
C141        C142   1.405       .  A
C141        C146   1.413       .  A
C141        H148   1.084       .  S
C142        C143   1.419       .  A
C143        C150   1.512       .  S
C143        C144   1.397       .  A
C144        C145   1.405       .  A
C144        H149   1.084       .  S
C145        C146   1.421       .  A
C146        C147   1.506       .  S
C147        H151   1.110       .  S
C147        H152   1.110       .  S
C147        H153   1.111       .  S
C150        H154   1.105       .  S
C150        H155   1.110       .  S
C150        H156   1.111       .  S
C157        C158   1.406       .  A
C157        C162   1.407       .  A
C157        H164   1.084       .  S
C158        C159   1.418       .  A
C159        C166   1.503       .  S
C159        C160   1.407       .  A
C160        C161   1.399       .  A
C160        H165   1.084       .  S
C161        C162   1.410       .  A
C162        C163   1.506       .  S
C163        H167   1.111       .  S
C163        H168   1.110       .  S
C163        H169   1.110       .  S
C166        H170   1.105       .  S
C166        H171   1.107       .  S
C166        H172   1.111       .  S
C173        C174   1.406       .  A
C173        C178   1.407       .  A
C173        H180   1.084       .  S
C174        C711   1.412       .  A
C175        C182   1.505   1_565  S
C175        C176   1.410       .  A
C175        C710   1.413       .  A
C176        C713   1.404       .  A
C176        H181   1.084       .  S
C177        C178   1.411       .  A
C177        C712   1.404       .  A
C178        C179   1.507       .  S
C179        H183   1.111       .  S
C179        H184   1.111       .  S
C179        H185   1.110       .  S
C182        H186   1.110       .  S
C182        H187   1.109   1_545  S
C182        H188   1.111   1_545  S
C189        C194   1.404       .  A
C189        C726   1.402       .  A
C189        H196   1.084       .  S
C190        C191   1.413       .  A
C190        C725   1.403       .  A
C191        C198   1.506       .  S
C191        C192   1.409       .  A
C192        C193   1.409       .  A
C192        H197   1.084       .  S
C193        C730   1.421       .  A
C194        C195   1.509       .  S
C194        C729   1.422   1_545  A
C195        H199   1.111       .  S
C195        H200   1.110       .  S
C195        H201   1.111       .  S
C198        H202   1.106       .  S
C198        H203   1.110       .  S
C198        H204   1.111       .  S
C205        C206   1.410       .  A
C205        C210   1.412       .  A
C205        H212   1.082       .  S
C206        C207   1.426       .  A
C207        C214   1.510       .  S
C207        C208   1.407       .  A
C208        C209   1.408       .  A
C208        H213   1.084       .  S
C209        C210   1.418       .  A
C210        C211   1.500       .  S
C211        H215   1.111       .  S
C211        H216   1.104       .  S
C211        H217   1.107       .  S
C214        H218   1.110       .  S
C214        H219   1.106       .  S
C214        H220   1.111       .  S
C221        C222   1.412       .  A
C221        C226   1.412       .  A
C221        H228   1.079       .  S
C222        C223   1.425       .  A
C223        C230   1.511       .  S
C223        C224   1.405       .  A
C224        C225   1.409       .  A
C224        H229   1.083       .  S
C225        C226   1.421       .  A
C226        C227   1.506       .  S
C227        H231   1.111       .  S
C227        H232   1.107       .  S
C227        H233   1.107       .  S
C230        H234   1.102       .  S
C230        H235   1.110       .  S
C230        H236   1.111       .  S
C237        C238   1.400       .  A
C237        C242   1.406       .  A
C237        H244   1.074       .  S
C238        C239   1.417       .  A
C239        C246   1.508       .  S
C239        C240   1.408       .  A
C240        C241   1.405       .  A
C240        H245   1.084       .  S
C241        C242   1.415       .  A
C242        C243   1.508       .  S
C243        H247   1.111       .  S
C243        H248   1.109       .  S
C243        H249   1.110       .  S
C246        H250   1.111       .  S
C246        H251   1.109       .  S
C246        H252   1.107       .  S
C253        C254   1.417       .  A
C253        C258   1.407       .  A
C253        H260   1.083       .  S
C254        C255   1.430       .  A
C255        C262   1.506       .  S
C255        C256   1.410       .  A
C256        C257   1.399       .  A
C256        H261   1.085       .  S
C257        C258   1.410       .  A
C258        C259   1.508       .  S
C259        H263   1.110       .  S
C259        H264   1.108       .  S
C259        H265   1.111       .  S
C262        H266   1.102       .  S
C262        H267   1.108       .  S
C262        H268   1.111       .  S
C269        C270   1.542       .  S
C269        C275   1.543       .  S
C269        C273   1.528       .  S
C269        C490   1.551       .  S
C270        H277   1.083       .  S
C270        C271   1.376       .  D
C271        C272   1.555       .  S
C271        C522   1.524       .  S
C272        C276   1.554       .  S
C272        C274   1.553       .  S
C272        H278   1.093       .  S
C273        H279   1.087       .  S
C273        C274   1.361       .  D
C274        C506   1.491       .  S
C275        H280   1.083       .  S
C275        C276   1.372       .  D
C276        C477   1.516       .  S
C281        C282   1.536       .  S
C281        C823   1.546       .  S
C281        C285   1.541       .  S
C281        C474   1.551       .  S
C282        H289   1.086       .  S
C282        C819   1.366       .  D
C283        C284   1.544       .  S
C283        C818   1.366       .  D
C283        C442   1.493       .  S
C284        C288   1.552       .  S
C284        C286   1.540       .  S
C284        H290   1.102       .  S
C285        H291   1.084       .  S
C285        C822   1.362       .  D
C286        C821   1.362       .  D
C286        C458   1.489       .  S
C287        C817   1.547       .  S
C287        H292   1.084       .  S
C287        C288   1.378       .  D
C288        C493   1.515       .  S
C293        C294   1.542       .  S
C293        C299   1.538       .  S
C293        C297   1.548       .  S
C293        C397   1.554       .  S
C294        H301   1.086       .  S
C294        C295   1.366       .  D
C295        C296   1.538       .  S
C295        C426   1.495       .  S
C296        C300   1.542       .  S
C296        C298   1.541       .  S
C296        H302   1.108       .  S
C297        H303   1.080       .  S
C297        C298   1.368       .  D
C298        C410   1.490       .  S
C299        H304   1.085       .  S
C299        C300   1.367       .  D
C300        C378   1.489       .  S
C305        C306   1.547       .  S
C305        C847   1.536   1_545  S
C305        C309   1.543       .  S
C305        C394   1.557       .  S
C306        H313   1.078       .  S
C306        C843   1.364   1_545  D
C307        C308   1.541       .  S
C307        C842   1.364       .  D
C307        C362   1.491       .  S
C308        C312   1.543       .  S
C308        C310   1.538       .  S
C308        H314   1.106       .  S
C309        H315   1.086       .  S
C309        C846   1.369   1_545  D
C310        C845   1.370       .  D
C310        C349   1.498       .  S
C311        C841   1.538       .  S
C311        H316   1.085       .  S
C311        C312   1.368       .  D
C312        C381   1.490       .  S
O317        C327   1.283       .  A
O318        C328   1.282       .  A
O318       Ni325   1.927   1_455  S
O319        C329   1.283       .  A
O320        C330   1.283       .  A
O320       Ni325   1.931       .  S
O321        C866   1.280   1_545  A
O321       Ni326   1.916   1_655  S
O322        C865   1.282   1_545  A
O323        C864   1.279       .  A
O323       Ni326   1.910   1_565  S
O324        C863   1.281   1_545  A
Ni325      Ni862   2.386   1_655  S
Ni326      Ni861   2.386   1_445  S
C327        O860   1.281       .  A
C327        C461   1.494       .  S
C328        O859   1.279       .  A
C328        C346   1.473       .  S
C329        O858   1.282       .  A
C329        C365   1.491       .  S
C330        O857   1.280       .  A
C330        C445   1.480       .  S
O331        C341   1.283       .  A
O331       Ni339   1.934   1_556  S
O332        C342   1.285       .  A
O333        C343   1.282       .  A
O333       Ni339   1.924   1_556  S
O334        C344   1.281       .  A
O335        C344   1.281       .  A
O336        C343   1.282       .  A
O336       Ni340   1.921   1_556  S
O337        C342   1.279       .  A
O338        C341   1.281       .  A
O338       Ni340   1.908   1_556  S
Ni339      Ni340   2.386       .  S
C341        C413   1.496       .  S
C342        C525   1.482       .  S
C343        C509   1.486       .  S
C344        C429   1.476       .  S
C345        C346   1.398       .  A
C345        C350   1.406       .  A
C345        H352   1.085       .  S
C346        C347   1.409       .  A
C347        C354   1.507       .  S
C347        C348   1.404       .  A
C348        C349   1.408       .  A
C348        H353   1.084       .  S
C349        C350   1.422       .  A
C350        C351   1.504       .  S
C351        H355   1.111       .  S
C351        H356   1.106       .  S
C351        H893   1.103       .  S
C354        H358   1.109       .  S
C354        H359   1.110       .  S
C354        H360   1.111       .  S
H357        C887   1.103       .  S
C361        C362   1.403       .  A
C361        C366   1.413       .  A
C361        H368   1.084       .  S
C362        C899   1.420       .  A
C363        C370   1.512   1_565  S
C363        C898   1.421       .  A
C363        C364   1.397       .  A
C364        C901   1.402       .  A
C364        H369   1.085   1_565  S
C365        C900   1.402       .  A
C365        C366   1.420       .  A
C366        C367   1.506       .  S
C367        H371   1.111       .  S
C367        H372   1.110       .  S
C367        H373   1.110       .  S
C370        H374   1.110       .  S
C370        H375   1.106       .  S
C370        H376   1.111       .  S
C377        C378   1.403       .  A
C377        C382   1.407       .  A
C377        H384   1.085       .  S
C378        C379   1.417       .  A
C379        C386   1.508       .  S
C379        C380   1.406       .  A
C380        C381   1.403       .  A
C380        H385   1.085       .  S
C381        C382   1.416       .  A
C382        C383   1.507       .  S
C383        H387   1.111       .  S
C383        H388   1.110       .  S
C383        H389   1.108       .  S
C386        H390   1.110       .  S
C386        H391   1.107       .  S
C386        H392   1.110       .  S
C393        C394   1.412       .  A
C393        C398   1.407       .  A
C393        H400   1.071       .  S
C394        C395   1.426       .  A
C395        C402   1.517       .  S
C395        C396   1.411       .  A
C396        C397   1.414       .  A
C396        H401   1.073       .  S
C397        C398   1.425       .  A
C398        C399   1.518       .  S
C399        H403   1.111       .  S
C399        H404   1.105       .  S
C399        H405   1.105       .  S
C402        H406   1.106   1_545  S
C402        H407   1.105       .  S
C402        H408   1.111       .  S
C409        C410   1.405       .  A
C409        C414   1.413       .  A
C409        H416   1.084       .  S
C410        C411   1.417       .  A
C411        C418   1.512       .  S
C411        C412   1.396       .  A
C412        C413   1.405       .  A
C412        H417   1.084       .  S
C413        C414   1.421       .  A
C414        C415   1.506       .  S
C415        H419   1.110       .  S
C415        H420   1.110       .  S
C415        H421   1.111       .  S
C418        H422   1.105       .  S
C418        H423   1.110       .  S
C418        H424   1.111       .  S
C425        C426   1.407       .  A
C425        C430   1.405       .  A
C425        H432   1.084       .  S
C426        C427   1.419       .  A
C427        C434   1.505       .  S
C427        C428   1.408       .  A
C428        C429   1.400       .  A
C428        H433   1.084       .  S
C429        C430   1.409       .  A
C430        C431   1.507       .  S
C431        H435   1.111       .  S
C431        H436   1.110       .  S
C431        H437   1.110       .  S
C434        H438   1.105       .  S
C434        H439   1.106       .  S
C434        H440   1.111       .  S
C441        C442   1.406       .  A
C441        C446   1.408       .  A
C441        H448   1.084       .  S
C442        C979   1.414       .  A
C443        C450   1.504       .  S
C443        C978   1.414       .  A
C443        C444   1.408       .  A
C444        C981   1.403       .  A
C444        H449   1.084       .  S
C445        C980   1.403       .  A
C445        C446   1.411       .  A
C446        C447   1.507       .  S
C447        H451   1.111       .  S
C447        H452   1.111       .  S
C447        H453   1.110       .  S
C450        H454   1.109   1_565  S
C450        H455   1.108       .  S
C450        H456   1.111       .  S
C457        C994   1.403       .  A
C457        C462   1.405       .  A
C457        H464   1.084       .  S
C458        C993   1.403       .  A
C458        C459   1.413       .  A
C459        C466   1.506       .  S
C459        C460   1.408       .  A
C460        C461   1.409       .  A
C460        H465   1.084       .  S
C461        C998   1.420       .  A
C462        C463   1.509       .  S
C462        C997   1.421   1_545  A
C463        H467   1.111       .  S
C463        H468   1.109       .  S
C463        H469   1.111       .  S
C466        H470   1.106       .  S
C466        H471   1.110       .  S
C466        H472   1.111       .  S
C473        C474   1.411       .  A
C473        C478   1.413       .  A
C473        H480   1.082       .  S
C474        C475   1.426       .  A
C475        C482   1.510       .  S
C475        C476   1.406       .  A
C476        C477   1.408       .  A
C476        H481   1.084       .  S
C477        C478   1.419       .  A
C478        C479   1.502       .  S
C479        H483   1.111       .  S
C479        H484   1.104       .  S
C479        H485   1.106       .  S
C482        H486   1.110       .  S
C482        H487   1.106       .  S
C482        H488   1.111       .  S
C489        C490   1.412       .  A
C489        C494   1.412       .  A
C489        H496   1.080       .  S
C490        C491   1.425       .  A
C491        C498   1.511       .  S
C491        C492   1.406       .  A
C492        C493   1.408       .  A
C492        H497   1.083       .  S
C493        C494   1.421       .  A
C494        C495   1.507       .  S
C495        H499   1.111       .  S
C495        H500   1.108       .  S
C495        H501   1.106       .  S
C498        H502   1.103       .  S
C498        H503   1.110       .  S
C498        H504   1.111       .  S
C505        C506   1.400       .  A
C505        C510   1.406       .  A
C505        H512   1.075       .  S
C506        C507   1.418       .  A
C507        C514   1.508       .  S
C507        C508   1.406       .  A
C508        C509   1.405       .  A
C508        H513   1.084       .  S
C509        C510   1.415       .  A
C510        C511   1.508       .  S
C511        H515   1.111       .  S
C511        H516   1.109       .  S
C511        H517   1.110       .  S
C514        H518   1.111       .  S
C514        H519   1.107       .  S
C514        H520   1.110       .  S
C521        C522   1.416       .  A
C521        C526   1.407       .  A
C521        H528   1.083       .  S
C522        C523   1.430       .  A
C523        C530   1.505       .  S
C523        C524   1.410       .  A
C524        C525   1.398       .  A
C524        H529   1.085       .  S
C525        C526   1.409       .  A
C526        C527   1.508       .  S
C527        H531   1.110       .  S
C527        H532   1.108       .  S
C527        H533   1.110       .  S
C530        H534   1.102       .  S
C530        H535   1.108       .  S
C530        H536   1.111       .  S
C537        C538   1.544       .  S
C537        C543   1.544       .  S
C537        C541   1.529       .  S
C537        C758   1.554       .  S
C538        H545   1.084       .  S
C538        C539   1.375       .  D
C539        C540   1.553       .  S
C539        C790   1.521       .  S
C540        C544   1.555       .  S
C540        C542   1.553       .  S
C540        H546   1.095       .  S
C541        H547   1.087       .  S
C541        C542   1.362       .  D
C542        C774   1.494       .  S
C543        H548   1.083       .  S
C543        C544   1.372       .  D
C544        C745   1.516       .  S
C549        C550   1.534       .  S
C549        C553   1.539       .  S
C549        C742   1.549       .  S
C550        H557   1.086       .  S
C551        C552   1.544   1_545  S
C551        C710   1.491   1_545  S
C552        C556   1.553       .  S
C552        C554   1.540   1_565  S
C552        H558   1.102       .  S
C553        H559   1.084       .  S
C554        C726   1.489       .  S
C555        H560   1.083       .  S
C555        C556   1.379   1_545  D
C556        C761   1.518       .  S
C561        C562   1.541       .  S
C561        C567   1.537       .  S
C561        C565   1.548       .  S
C561        C665   1.553       .  S
C562        H569   1.086       .  S
C562        C563   1.367       .  D
C563        C564   1.540       .  S
C563        C694   1.498       .  S
C564        C568   1.543       .  S
C564        C566   1.543       .  S
C564        H570   1.107       .  S
C565        H571   1.079       .  S
C565        C566   1.369       .  D
C566        C678   1.492       .  S
C567        H572   1.085       .  S
C567        C568   1.365       .  D
C568        C646   1.489       .  S
C573        C574   1.548       .  S
C573        C577   1.539       .  S
C573        C662   1.555       .  S
C574        H581   1.079       .  S
C575        C576   1.543       .  S
C575        C630   1.491       .  S
C576        C580   1.543       .  S
C576        C578   1.539       .  S
C576        H582   1.106       .  S
C577        H583   1.086       .  S
C578        C617   1.497       .  S
C579        H584   1.085       .  S
C579        C580   1.368       .  D
C580        C649   1.489       .  S
O585        C595   1.284       .  A
O585       Ni861   1.930   1_554  S
O586        C596   1.282       .  A
O586       Ni593   1.925   1_455  S
O587        C597   1.283       .  A
O587       Ni861   1.933   1_454  S
O588        C598   1.283       .  A
O588       Ni593   1.930       .  S
O589       Ni594   1.919   1_655  S
O590       Ni862   1.914   1_554  S
O591       Ni594   1.911       .  S
O592       Ni862   1.916   1_654  S
Ni593       O853   1.929       .  S
Ni593       O855   1.931   1_655  S
Ni594       O858   1.913       .  S
Ni594       O860   1.916   1_455  S
C595        C729   1.496       .  S
C596        C614   1.472       .  S
C597        C633   1.490       .  S
C598        C713   1.479       .  S
O599        C609   1.284       .  A
O599       Ni607   1.934       .  S
O600        C610   1.285       .  A
O600       Ni875   1.935       .  S
O601        C611   1.282       .  A
O601       Ni607   1.921       .  S
O602        C612   1.281       .  A
O602       Ni875   1.926       .  S
O603        C612   1.281       .  A
O603       Ni876   1.918       .  S
O604        C611   1.281       .  A
O604       Ni608   1.921       .  S
O605        C610   1.279       .  A
O605       Ni876   1.916       .  S
O606        C609   1.282       .  A
O606       Ni608   1.911       .  S
Ni607       O868   1.935       .  S
Ni607       O870   1.925       .  S
Ni607      Ni608   2.386       .  S
Ni608       O871   1.918       .  S
Ni608       O873   1.918       .  S
C609        C681   1.498       .  S
C610        C793   1.482       .  S
C611        C777   1.488       .  S
C612        C697   1.476       .  S
C613        C614   1.398       .  A
C613        C618   1.406       .  A
C613        H620   1.085       .  S
C614        C615   1.408       .  A
C615        C622   1.507       .  S
C615        C616   1.403       .  A
C616        C617   1.409       .  A
C616        H621   1.084       .  S
C617        C618   1.422       .  A
C618        C619   1.504       .  S
C619        H623   1.111       .  S
C619        H624   1.106       .  S
C622        H626   1.110       .  S
C622        H627   1.110   1_565  S
C622        H628   1.111       .  S
C629        C630   1.404       .  A
C629        C634   1.414       .  A
C629        H636   1.084       .  S
C631        C638   1.511       .  S
C631        C632   1.398       .  A
C632        H637   1.085       .  S
C633        C634   1.420       .  A
C634        C635   1.505       .  S
C635        H639   1.111       .  S
C635        H640   1.110       .  S
C635        H641   1.110       .  S
C638        H642   1.110       .  S
C638        H643   1.106       .  S
C638        H644   1.111       .  S
C645        C646   1.403       .  A
C645        C650   1.407       .  A
C645        H652   1.085       .  S
C646        C647   1.417       .  A
C647        C654   1.507       .  S
C647        C648   1.407       .  A
C648        C649   1.403       .  A
C648        H653   1.085       .  S
C649        C650   1.416       .  A
C650        C651   1.507       .  S
C651        H655   1.111       .  S
C651        H656   1.110       .  S
C651        H657   1.108       .  S
C654        H658   1.110       .  S
C654        H659   1.108       .  S
C654        H660   1.110       .  S
C661        C662   1.411       .  A
C661        C666   1.406       .  A
C661        H668   1.071       .  S
C662        C663   1.427       .  A
C663        C670   1.517       .  S
C663        C664   1.411       .  A
C664        C665   1.413       .  A
C664        H669   1.072       .  S
C665        C666   1.426       .  A
C666        C667   1.518       .  S
C667        H671   1.110       .  S
C667        H672   1.105       .  S
C667        H673   1.105       .  S
C670        H674   1.106       .  S
C670        H675   1.105       .  S
C670        H676   1.111       .  S
C677        C678   1.404       .  A
C677        C682   1.414       .  A
C677        H684   1.084       .  S
C678        C679   1.418       .  A
C679        C686   1.512       .  S
C679        C680   1.398       .  A
C680        C681   1.405       .  A
C680        H685   1.084       .  S
C681        C682   1.421       .  A
C682        C683   1.506       .  S
C683        H687   1.110       .  S
C683        H688   1.110       .  S
C683        H689   1.111       .  S
C686        H690   1.106       .  S
C686        H691   1.110       .  S
C686        H692   1.111       .  S
C693        C694   1.408       .  A
C693        C698   1.405       .  A
C693        H700   1.084       .  S
C694        C695   1.421       .  A
C695        C702   1.505       .  S
C695        C696   1.409       .  A
C696        C697   1.400       .  A
C696        H701   1.084       .  S
C697        C698   1.409       .  A
C698        C699   1.507       .  S
C699        H703   1.111       .  S
C699        H704   1.110       .  S
C699        H705   1.110       .  S
C702        H706   1.105       .  S
C702        H707   1.106       .  S
C702        H708   1.111       .  S
C709        C710   1.406       .  A
C709        C714   1.407       .  A
C709        H716   1.084       .  S
C711        C718   1.504       .  S
C711        C712   1.409       .  A
C712        H717   1.084       .  S
C713        C714   1.410       .  A
C714        C715   1.507       .  S
C715        H719   1.111       .  S
C715        H720   1.111   1_565  S
C715        H721   1.110       .  S
C718        H722   1.110       .  S
C718        H723   1.109       .  S
C718        H724   1.111       .  S
C725        C730   1.404       .  A
C725        H732   1.084       .  S
C726        C727   1.413   1_545  A
C727        C734   1.506       .  S
C727        C728   1.408       .  A
C728        C729   1.409       .  A
C728        H733   1.084       .  S
C730        C731   1.509       .  S
C731        H735   1.111       .  S
C731        H736   1.110       .  S
C731        H737   1.111       .  S
C734        H738   1.106       .  S
C734        H739   1.110       .  S
C734        H740   1.111       .  S
C741        C742   1.409       .  A
C741        C746   1.411       .  A
C741        H748   1.082       .  S
C742        C743   1.426       .  A
C743        C750   1.510       .  S
C743        C744   1.407       .  A
C744        C745   1.408       .  A
C744        H749   1.084       .  S
C745        C746   1.419       .  A
C746        C747   1.499       .  S
C747        H751   1.111       .  S
C747        H752   1.104       .  S
C747        H753   1.107       .  S
C750        H754   1.110       .  S
C750        H755   1.106       .  S
C750        H756   1.111       .  S
C757        C758   1.413       .  A
C757        C762   1.413       .  A
C757        H764   1.079       .  S
C758        C759   1.425       .  A
C759        C766   1.510       .  S
C759        C760   1.405       .  A
C760        C761   1.408       .  A
C760        H765   1.082       .  S
C761        C762   1.422       .  A
C762        C763   1.507       .  S
C763        H767   1.111       .  S
C763        H768   1.108       .  S
C763        H769   1.107       .  S
C766        H770   1.101       .  S
C766        H771   1.110       .  S
C766        H772   1.111       .  S
C773        C774   1.400       .  A
C773        C778   1.406       .  A
C773        H780   1.073       .  S
C774        C775   1.418       .  A
C775        C782   1.507       .  S
C775        C776   1.405       .  A
C776        C777   1.405       .  A
C776        H781   1.085       .  S
C777        C778   1.416       .  A
C778        C779   1.508       .  S
C779        H783   1.111       .  S
C779        H784   1.110       .  S
C779        H785   1.110       .  S
C782        H786   1.111       .  S
C782        H787   1.105       .  S
C782        H788   1.110       .  S
C789        C790   1.414       .  A
C789        C794   1.408       .  A
C789        H796   1.083       .  S
C790        C791   1.429       .  A
C791        C798   1.504       .  S
C791        C792   1.410       .  A
C792        C793   1.398       .  A
C792        H797   1.085       .  S
C793        C794   1.410       .  A
C794        C795   1.508       .  S
C795        H799   1.110       .  S
C795        H800   1.108       .  S
C795        H801   1.111       .  S
C798        H802   1.100       .  S
C798        H803   1.108       .  S
C798        H804   1.111       .  S
C805        C806   1.543       .  S
C805        C811   1.544       .  S
C805        C809   1.528       .  S
C805       C1026   1.552       .  S
C806        H813   1.084       .  S
C806        C807   1.374       .  D
C807        C808   1.554       .  S
C807       C1058   1.521       .  S
C808        C812   1.558       .  S
C808        C810   1.555       .  S
C808        H814   1.096       .  S
C809        H815   1.087       .  S
C809        C810   1.362       .  D
C810       C1042   1.495       .  S
C811        H816   1.083       .  S
C811        C812   1.374       .  D
C812       C1013   1.520       .  S
C817        C818   1.536       .  S
C817        C821   1.540       .  S
C817       C1010   1.553       .  S
C818        H825   1.086       .  S
C819        C820   1.543   1_545  S
C819        C978   1.491   1_545  S
C820        C824   1.550       .  S
C820        C822   1.540   1_565  S
C820        H826   1.102       .  S
C821        H827   1.084       .  S
C822        C994   1.490       .  S
C823        H828   1.084       .  S
C823        C824   1.377   1_545  D
C824       C1029   1.513       .  S
C829        C830   1.542       .  S
C829        C835   1.537       .  S
C829        C833   1.549       .  S
C829        C933   1.555       .  S
C830        H837   1.086       .  S
C830        C831   1.368       .  D
C831        C832   1.540       .  S
C831        C962   1.499       .  S
C832        C836   1.543       .  S
C832        C834   1.543       .  S
C832        H838   1.106       .  S
C833        H839   1.080       .  S
C833        C834   1.369       .  D
C834        C946   1.493       .  S
C835        H840   1.085       .  S
C835        C836   1.365       .  D
C836        C914   1.490       .  S
C841        C842   1.548       .  S
C841        C845   1.542       .  S
C841        C930   1.558       .  S
C842        H849   1.079       .  S
C843        C844   1.542       .  S
C843        C898   1.492       .  S
C844        C848   1.544       .  S
C844        C846   1.538       .  S
C844        H850   1.107       .  S
C845        H851   1.086       .  S
C846        C885   1.496       .  S
C847        H852   1.085       .  S
C847        C848   1.367       .  D
C848        C917   1.490       .  S
O853        C863   1.284       .  A
O854        C864   1.282       .  A
O854       Ni861   1.928   1_455  S
O855        C865   1.283       .  A
O856        C866   1.283       .  A
O856       Ni861   1.930       .  S
O857       Ni862   1.920   1_655  S
O859       Ni862   1.911       .  S
C863        C997   1.495       .  S
C864        C882   1.472       .  S
C865        C901   1.491       .  S
C866        C981   1.477       .  S
O867        C877   1.284       .  A
O867       Ni875   1.937   1_556  S
O868        C878   1.285       .  A
O869        C879   1.282       .  A
O869       Ni875   1.922   1_556  S
O870        C880   1.281       .  A
O871        C880   1.280       .  A
O872        C879   1.282       .  A
O872       Ni876   1.921   1_556  S
O873        C878   1.280       .  A
O874        C877   1.282       .  A
O874       Ni876   1.911   1_556  S
Ni875      Ni876   2.385       .  S
C877        C949   1.499       .  S
C878       C1061   1.483       .  S
C879       C1045   1.489       .  S
C880        C965   1.475       .  S
C881        C882   1.398       .  A
C881        C886   1.406       .  A
C881        H888   1.085       .  S
C882        C883   1.409       .  A
C883        C890   1.507       .  S
C883        C884   1.405       .  A
C884        C885   1.408       .  A
C884        H889   1.084       .  S
C885        C886   1.421       .  A
C886        C887   1.504       .  S
C887        H891   1.111       .  S
C887        H892   1.106       .  S
C890        H894   1.110       .  S
C890        H895   1.110       .  S
C890        H896   1.111       .  S
C897        C898   1.403       .  A
C897        C902   1.413       .  A
C897        H904   1.084       .  S
C899        C906   1.511       .  S
C899        C900   1.397       .  A
C900        H905   1.085       .  S
C901        C902   1.420       .  A
C902        C903   1.505       .  S
C903        H907   1.111       .  S
C903        H908   1.110       .  S
C903        H909   1.110       .  S
C906        H910   1.110       .  S
C906        H911   1.106       .  S
C906        H912   1.111       .  S
C913        C914   1.403       .  A
C913        C918   1.407       .  A
C913        H920   1.085       .  S
C914        C915   1.417       .  A
C915        C922   1.507       .  S
C915        C916   1.407       .  A
C916        C917   1.403       .  A
C916        H921   1.085       .  S
C917        C918   1.416       .  A
C918        C919   1.507       .  S
C919        H923   1.111       .  S
C919        H924   1.110       .  S
C919        H925   1.108       .  S
C922        H926   1.111       .  S
C922        H927   1.107       .  S
C922        H928   1.110       .  S
C929        C930   1.412       .  A
C929        C934   1.407       .  A
C929        H936   1.071       .  S
C930        C931   1.427       .  A
C931        C938   1.516       .  S
C931        C932   1.412       .  A
C932        C933   1.413       .  A
C932        H937   1.073       .  S
C933        C934   1.426       .  A
C934        C935   1.518       .  S
C935        H939   1.111       .  S
C935        H940   1.105       .  S
C935        H941   1.105       .  S
C938        H942   1.106       .  S
C938        H943   1.105       .  S
C938        H944   1.111       .  S
C945        C946   1.405       .  A
C945        C950   1.415       .  A
C945        H952   1.084       .  S
C946        C947   1.418       .  A
C947        C954   1.511       .  S
C947        C948   1.398       .  A
C948        C949   1.406       .  A
C948        H953   1.084       .  S
C949        C950   1.421       .  A
C950        C951   1.506       .  S
C951        H955   1.110       .  S
C951        H956   1.110       .  S
C951        H957   1.111       .  S
C954        H958   1.106       .  S
C954        H959   1.110       .  S
C954        H960   1.111       .  S
C961        C962   1.409       .  A
C961        C966   1.405       .  A
C961        H968   1.084       .  S
C962        C963   1.422       .  A
C963        C970   1.505       .  S
C963        C964   1.408       .  A
C964        C965   1.399       .  A
C964        H969   1.084       .  S
C965        C966   1.409       .  A
C966        C967   1.507       .  S
C967        H971   1.111       .  S
C967        H972   1.110       .  S
C967        H973   1.110       .  S
C970        H974   1.105       .  S
C970        H975   1.106       .  S
C970        H976   1.111       .  S
C977        C978   1.406       .  A
C977        C982   1.407       .  A
C977        H984   1.084       .  S
C979        C986   1.504       .  S
C979        C980   1.409       .  A
C980        H985   1.084       .  S
C981        C982   1.410       .  A
C982        C983   1.507       .  S
C983        H987   1.111       .  S
C983        H988   1.111   1_565  S
C983        H989   1.110       .  S
C986        H990   1.109       .  S
C986        H991   1.109       .  S
C986        H992   1.111       .  S
C993        C998   1.403       .  A
C993       H1000   1.084       .  S
C994        C995   1.413   1_545  A
C995       C1002   1.506       .  S
C995        C996   1.408       .  A
C996        C997   1.409       .  A
C996       H1001   1.084       .  S
C998        C999   1.509       .  S
C999       H1003   1.111       .  S
C999       H1004   1.109       .  S
C999       H1005   1.111       .  S
C1002      H1006   1.106       .  S
C1002      H1007   1.110       .  S
C1002      H1008   1.110       .  S
C1009      C1010   1.409       .  A
C1009      C1014   1.412       .  A
C1009      H1016   1.082       .  S
C1010      C1011   1.427       .  A
C1011      C1018   1.510       .  S
C1011      C1012   1.409       .  A
C1012      C1013   1.409       .  A
C1012      H1017   1.084       .  S
C1013      C1014   1.420       .  A
C1014      C1015   1.498       .  S
C1015      H1019   1.111       .  S
C1015      H1020   1.104       .  S
C1015      H1021   1.107       .  S
C1018      H1022   1.110       .  S
C1018      H1023   1.106       .  S
C1018      H1024   1.111       .  S
C1025      C1026   1.413       .  A
C1025      C1030   1.414       .  A
C1025      H1032   1.080       .  S
C1026      C1027   1.426       .  A
C1027      C1034   1.510       .  S
C1027      C1028   1.404       .  A
C1028      C1029   1.406       .  A
C1028      H1033   1.083       .  S
C1029      C1030   1.421       .  A
C1030      C1031   1.507       .  S
C1031      H1035   1.111       .  S
C1031      H1036   1.108       .  S
C1031      H1037   1.106       .  S
C1034      H1038   1.101       .  S
C1034      H1039   1.110       .  S
C1034      H1040   1.111       .  S
C1041      C1042   1.399       .  A
C1041      C1046   1.405       .  A
C1041      H1048   1.070       .  S
C1042      C1043   1.419       .  A
C1043      C1050   1.507       .  S
C1043      C1044   1.406       .  A
C1044      C1045   1.405       .  A
C1044      H1049   1.084       .  S
C1045      C1046   1.416       .  A
C1046      C1047   1.508       .  S
C1047      H1051   1.111       .  S
C1047      H1052   1.109       .  S
C1047      H1053   1.110       .  S
C1050      H1054   1.111       .  S
C1050      H1055   1.105       .  S
C1050      H1056   1.110       .  S
C1057      C1058   1.415       .  A
C1057      C1062   1.408       .  A
C1057      H1064   1.083       .  S
C1058      C1059   1.429       .  A
C1059      C1066   1.504       .  S
C1059      C1060   1.410       .  A
C1060      C1061   1.398       .  A
C1060      H1065   1.085       .  S
C1061      C1062   1.410       .  A
C1062      C1063   1.508       .  S
C1063      H1067   1.110       .  S
C1063      H1068   1.108       .  S
C1063      H1069   1.110       .  S
C1066      H1070   1.101       .  S
C1066      H1071   1.107       .  S
C1066      H1072   1.111       .  S
