geometry optimzed in LAMMPS
_audit_creation_date              2020-11-30 
_audit_creation_method            'lammps2cif' 
_symmetry_space_group_name_H-M    'P1' 
_symmetry_Int_Tables_number       1 
_symmetry_cell_setting            triclinic 
loop_ 
_symmetry_equiv_pos_as_xyz 
  x,y,z 
_cell_length_a                    39.670810431462556 
_cell_length_b                    39.464610195534256 
_cell_length_c                    35.210757590634735 
_cell_angle_alpha                 90.08933597014821 
_cell_angle_beta                  89.99766551490863 
_cell_angle_gamma                 89.65151036894142 
loop_ 
_atom_site_label 
_atom_site_type_symbol 
_atom_site_fract_x 
_atom_site_fract_y 
_atom_site_fract_z 
_atom_site_charge 
C1          C  0.25151635  0.74750260  0.63175921     0.03570
C2          C  0.25032852  0.71681669  0.65223572    -0.12580
C3          C  0.24785061  0.71717056  0.69195433     0.01070
C4          C  0.24698874  0.74803035  0.71130824    -0.11110
C5          C  0.24866683  0.77866160  0.69166703     0.03560
C6          C  0.25102608  0.77848755  0.65189902    -0.10530
H7          H  0.25103039  0.69276290  0.63738398     0.09150
H8          H  0.24526056  0.74820297  0.74207573     0.06680
H9          H  0.25134175  0.80235624  0.63677790     0.06530
C10         C  0.25075177  0.74687252  0.46665669     0.03570
C11         C  0.28135582  0.74802449  0.44627826    -0.12580
C12         C  0.28122382  0.75081345  0.40659575     0.01070
C13         C  0.25054560  0.75144780  0.38716392    -0.11110
C14         C  0.21990053  0.75022521  0.40664269     0.03560
C15         C  0.21998705  0.74781951  0.44644704    -0.10530
H16         H  0.30521584  0.74738278  0.46122622     0.09150
H17         H  0.25053364  0.75304733  0.35639759     0.06680
H18         H  0.19622524  0.74802505  0.46158416     0.06530
N19         N  0.30197581  0.51981607  0.96881736    -0.26850
N20         N  0.31674153  0.53445712  0.93951598    -0.34710
C21         C  0.35022316  0.53316980  0.94404015     0.01490
C22         C  0.35749855  0.51715303  0.97802463     0.07510
C23         C  0.32610823  0.50894883  0.99302176    -0.05590
H24         H  0.36787502  0.54368196  0.92392558     0.08180
H25         H  0.32098185  0.49703675  0.02002515     0.09380
Cu26       Cu  0.29271206  0.55777487  0.89458750     0.44170
Cu27       Cu  0.24957529  0.51624261  0.97394718     0.41990
Cu28       Cu  0.20519543  0.55137048  0.89069544     0.43880
N29         N  0.26512237  0.58003798  0.85164054    -0.34240
N30         N  0.23207702  0.57734417  0.84991418    -0.28490
C31         C  0.22063396  0.59524738  0.82010315    -0.04590
C32         C  0.24796495  0.60996199  0.80196895     0.07620
C33         C  0.27579873  0.59975478  0.82303667     0.01420
H34         H  0.19428870  0.59784736  0.81275509     0.09070
H35         H  0.30173140  0.60719506  0.81912302     0.08150
N36         N  0.18194689  0.52870522  0.93654693    -0.35690
N37         N  0.19717838  0.51655167  0.96708937    -0.27870
C38         C  0.17342445  0.50640554  0.99197179    -0.03110
C39         C  0.14180947  0.51255544  0.97624191     0.05500
C40         C  0.14849067  0.52657745  0.94106921     0.03590
H41         H  0.17886475  0.49681976  0.02008358     0.08700
H42         H  0.13038632  0.53559288  0.92041236     0.07530
N43         N  0.51882480  0.19786333  0.96278121    -0.26850
N44         N  0.53284285  0.18223023  0.93347609    -0.34710
C45         C  0.53131189  0.14863505  0.93886231     0.01490
C46         C  0.51534315  0.14247221  0.97312646     0.07510
C47         C  0.50795449  0.17441622  0.98759825    -0.05590
H48         H  0.54240054  0.13027354  0.91971793     0.08180
H49         H  0.49590987  0.18030214  0.01439525     0.09380
Cu50       Cu  0.55522273  0.20585996  0.88755889     0.44170
Cu51       Cu  0.51620668  0.25029900  0.96842836     0.41990
Cu52       Cu  0.55317009  0.29569081  0.88937638     0.43880
N53         N  0.57770554  0.23499336  0.84592710    -0.34240
N54         N  0.57683833  0.26841078  0.84689184    -0.28490
C55         C  0.59567230  0.28059597  0.81840758    -0.04590
C56         C  0.60930781  0.25349407  0.79847273     0.07620
C57         C  0.59711293  0.22490929  0.81660345     0.01420
H58         H  0.59986337  0.30725950  0.81344811     0.09070
H59         H  0.60349456  0.19880317  0.81038231     0.08150
N60         N  0.53125683  0.31904503  0.93579010    -0.35690
N61         N  0.51798195  0.30287198  0.96495477    -0.27870
C62         C  0.50730558  0.32583495  0.99067036    -0.03110
C63         C  0.51426363  0.35804521  0.97695111     0.05500
C64         C  0.52938989  0.35254366  0.94204381     0.03590
H65         H  0.49544982  0.31935492  0.01731447     0.08700
H66         H  0.53944315  0.37143553  0.92300080     0.07530
N67         N  0.48461466  0.69760602  0.13742658    -0.26850
N68         N  0.47250803  0.68290012  0.16825646    -0.34710
C69         C  0.47372571  0.64918495  0.16382862     0.01490
C70         C  0.48678079  0.64189925  0.12830534     0.07510
C71         C  0.49373236  0.67328772  0.11246134    -0.05590
H72         H  0.46494850  0.63145255  0.18493475     0.08180
H73         H  0.50325416  0.67816417  0.08420520     0.09380
Cu74       Cu  0.45057268  0.70712420  0.21421536     0.44170
Cu75       Cu  0.48601983  0.74999809  0.12963731     0.41990
Cu76       Cu  0.44096906  0.79459569  0.20486219     0.43880
N77         N  0.42457331  0.73561801  0.25398881    -0.34240
N78         N  0.42111672  0.76865317  0.25019378    -0.28490
C79         C  0.40144412  0.78064552  0.27818792    -0.04590
C80         C  0.39169144  0.75372029  0.30088730     0.07620
C81         C  0.40693096  0.72546132  0.28450710     0.01420
H82         H  0.39396470  0.80692029  0.28087573     0.09070
H83         H  0.40389681  0.69925714  0.29259175     0.08150
N84         N  0.46388722  0.81794525  0.15959440    -0.35690
N85         N  0.48106939  0.80260383  0.13238019    -0.27870
C86         C  0.49317532  0.82637375  0.10861382    -0.03110
C87         C  0.48310672  0.85822313  0.12168145     0.05500
C88         C  0.46425620  0.85144229  0.15389220     0.03590
H89         H  0.50810847  0.82074952  0.08366987     0.08700
H90         H  0.45089783  0.86906336  0.17195220     0.07530
N91         N  0.69863031  0.48191369  0.13180880    -0.26850
N92         N  0.68253584  0.46841691  0.16087746    -0.34710
C93         C  0.64920518  0.47056406  0.15490652     0.01490
C94         C  0.64364370  0.48614684  0.12027449     0.07510
C95         C  0.67571276  0.49304608  0.10639799    -0.05590
H96         H  0.63045249  0.46038594  0.17396847     0.08180
H97         H  0.68210599  0.50517550  0.07986919     0.09380
Cu98       Cu  0.70572365  0.44584264  0.20681414     0.44170
Cu99       Cu  0.75109695  0.48331225  0.12851709     0.41990
Cu100      Cu  0.79516520  0.44171421  0.20818106     0.43880
N101        N  0.73239874  0.42127630  0.24892583    -0.34240
N102        N  0.76559405  0.41922033  0.24948915    -0.28490
C103        C  0.77513089  0.39987140  0.27909052    -0.04590
C104        C  0.74641247  0.38908228  0.29798917     0.07620
C105        C  0.71982045  0.40345206  0.27803219     0.01420
H106        H  0.80096872  0.39304303  0.28539173     0.09070
H107        H  0.69318689  0.40093773  0.28366536     0.08150
N108        N  0.81890038  0.46619999  0.16360435    -0.35690
N109        N  0.80336591  0.48087277  0.13466648    -0.27870
C110        C  0.82675130  0.49289189  0.11054186    -0.03110
C111        C  0.85850540  0.48570722  0.12513676     0.05500
C112        C  0.85238008  0.46864857  0.15873559     0.03590
H113        H  0.82099793  0.50556738  0.08407988     0.08700
H114        H  0.87080907  0.45744369  0.17761287     0.07530
C115        C  0.01314324  0.98795021  0.05038961     0.01000
C116        C  0.98923347  0.01273339  0.05030829     0.01000
N117        N  0.01683487  0.69778758  0.13731779    -0.26850
N118        N  0.02976119  0.68240764  0.16740047    -0.34710
C119        C  0.02839208  0.64878511  0.16229270     0.01490
C120        C  0.01406101  0.64214847  0.12725289     0.07510
C121        C  0.00694823  0.67396170  0.11219271    -0.05590
H122        H  0.03790540  0.63054032  0.18257309     0.08180
H123        H  0.99668258  0.67953328  0.08442550     0.09380
Cu124      Cu  0.05172242  0.70564925  0.21392891     0.44170
Cu125      Cu  0.01458994  0.75053693  0.13133653     0.41990
Cu126      Cu  0.04743860  0.79397165  0.21495817     0.43880
N127        N  0.07511252  0.73383607  0.25584818    -0.34240
N128        N  0.07334876  0.76720047  0.25595497    -0.28490
C129        C  0.09298337  0.77934906  0.28382003    -0.04590
C130        C  0.10802410  0.75221607  0.30230579     0.07620
C131        C  0.09587818  0.72366843  0.28390274     0.01420
H132        H  0.09668246  0.80601421  0.28936380     0.09070
H133        H  0.10309783  0.69761312  0.28907838     0.08150
N134        N  0.02702898  0.81824622  0.16846742    -0.35690
N135        N  0.01589526  0.80329482  0.13732100    -0.27870
C136        C  0.00745907  0.82749981  0.11193262    -0.03110
C137        C  0.01388275  0.85907154  0.12794922     0.05500
C138        C  0.02588620  0.85192905  0.16395200     0.03590
H139        H  0.99858117  0.82245366  0.08343345     0.08700
H140        H  0.03385939  0.86971616  0.18545952     0.07530
C141        C  0.01258335  0.51193159  0.05178995     0.01000
C142        C  0.98827259  0.48777173  0.05188234     0.01000
C143        C  0.48830931  0.51335330  0.04993780     0.01000
C144        C  0.51263561  0.48897850  0.04941806     0.01000
C145        C  0.51369500  0.01240326  0.04734602     0.01000
C146        C  0.48978414  0.98787358  0.04694357     0.01000
N147        N  0.69942953  0.01913073  0.13035027    -0.26850
N148        N  0.68314881  0.03368498  0.15878702    -0.34710
C149        C  0.64990320  0.03203231  0.15241163     0.01490
C150        C  0.64458134  0.01559198  0.11818694     0.07510
C151        C  0.67673153  0.00774717  0.10494634    -0.05590
H152        H  0.63107706  0.04299552  0.17101902     0.08180
H153        H  0.68334290  0.99474701  0.07892060     0.09380
Cu154      Cu  0.70594404  0.05656733  0.20465402     0.44170
Cu155      Cu  0.75179006  0.01686408  0.12795045     0.41990
Cu156      Cu  0.79542022  0.05968997  0.20694990     0.43880
N157        N  0.73227169  0.08059372  0.24724085    -0.34240
N158        N  0.76547492  0.08204567  0.24827510    -0.28490
C159        C  0.77481259  0.10111871  0.27813666    -0.04590
C160        C  0.74596122  0.11240124  0.29663168     0.07620
C161        C  0.71948387  0.09862844  0.27625242     0.01420
H162        H  0.80060038  0.10758542  0.28478209     0.09070
H163        H  0.69281470  0.10184413  0.28148781     0.08150
N164        N  0.81935372  0.03566072  0.16196032    -0.35690
N165        N  0.80388946  0.02015123  0.13362551    -0.27870
C166        C  0.82721735  0.00822653  0.10921727    -0.03110
C167        C  0.85896634  0.01674989  0.12268862     0.05500
C168        C  0.85279786  0.03404190  0.15627562     0.03590
H169        H  0.82119872  0.99447468  0.08355909     0.08700
H170        H  0.87118405  0.04565472  0.17477454     0.07530
N171        N  0.98035125  0.30264062  0.96527838    -0.26850
N172        N  0.96823398  0.31906086  0.93553265    -0.34710
C173        C  0.97092498  0.35254870  0.94136755     0.01490
C174        C  0.98559116  0.35784099  0.97652237     0.07510
C175        C  0.99102638  0.32550870  0.99100871    -0.05590
H176        H  0.96147273  0.37154012  0.92193747     0.08180
H177        H  0.00164275  0.31904314  0.01837626     0.09380
Cu178      Cu  0.94652456  0.29617269  0.88887439     0.44170
Cu179      Cu  0.98072127  0.24983958  0.96910313     0.41990
Cu180      Cu  0.94197778  0.20609802  0.88827209     0.43880
N181        N  0.92307075  0.26923243  0.84620446    -0.34240
N182        N  0.92140116  0.23584679  0.84576604    -0.28490
C183        C  0.90243401  0.22607260  0.81609887    -0.04590
C184        C  0.89133351  0.25480019  0.79715674     0.07620
C185        C  0.90513386  0.28170031  0.81700402     0.01420
H186        H  0.89550176  0.20012922  0.81021614     0.09070
H187        H  0.90159012  0.30842804  0.81153643     0.08150
N188        N  0.96357873  0.18177803  0.93434793    -0.35690
N189        N  0.97775919  0.19723916  0.96353712    -0.27870
C190        C  0.98897652  0.17359850  0.98807467    -0.03110
C191        C  0.98157486  0.14164472  0.97366963     0.05500
C192        C  0.96524547  0.14810620  0.93959559     0.03590
H193        H  0.00152394  0.17940867  0.01454032     0.08700
H194        H  0.95434428  0.12995507  0.92024948     0.07530
N195        N  0.19789043  0.97999821  0.96615412    -0.26850
N196        N  0.18326900  0.96694223  0.93577966    -0.34710
C197        C  0.14973672  0.96797690  0.94019208     0.01490
C198        C  0.14244224  0.98205769  0.97524185     0.07510
C199        C  0.17366904  0.98970843  0.99085674    -0.05590
H200        H  0.13209936  0.95862431  0.91931910     0.08180
H201        H  0.17847402  0.00029466  0.01868928     0.09380
Cu202      Cu  0.20790134  0.94489484  0.89035367     0.44170
Cu203      Cu  0.25018850  0.98174432  0.97255811     0.41990
Cu204      Cu  0.29541214  0.93537068  0.89651380     0.43880
N205        N  0.23522178  0.91877578  0.84983873    -0.34240
N206        N  0.26815390  0.91474219  0.85220064    -0.28490
C207        C  0.27870914  0.89503723  0.82328326    -0.04590
C208        C  0.25087509  0.88620033  0.80156136     0.07620
C209        C  0.22374392  0.90176075  0.81948271     0.01420
H210        H  0.30445495  0.88654549  0.81958632     0.09070
H211        H  0.19743876  0.90021400  0.81169494     0.08150
N212        N  0.31812242  0.96027011  0.94135930    -0.35690
N213        N  0.30257097  0.97737862  0.96857979    -0.27870
C214        C  0.32598103  0.99041589  0.99212354    -0.03110
C215        C  0.35783261  0.98098192  0.97907761     0.05500
C216        C  0.35147880  0.96183363  0.94686486     0.03590
H217        H  0.31994396  0.00572732  0.01668447     0.08700
H218        H  0.36963266  0.94925902  0.92871961     0.07770
C219        C  0.75008546  0.24761741  0.63201002     0.03570
C220        C  0.71944213  0.24837249  0.65245177    -0.12580
C221        C  0.71962089  0.25040419  0.69228068     0.01070
C222        C  0.75040928  0.25126205  0.71152015    -0.11110
C223        C  0.78095975  0.25079205  0.69184647     0.03560
C224        C  0.78082622  0.24855373  0.65212615    -0.10530
H225        H  0.69560037  0.24886023  0.63748193     0.09150
H226        H  0.75061546  0.25265501  0.74230468     0.06680
H227        H  0.80457620  0.24825219  0.63694262     0.06530
C228        C  0.75045120  0.25000145  0.46705330     0.03570
C229        C  0.74959934  0.28113221  0.44730470    -0.12580
C230        C  0.74724862  0.28154583  0.40754609     0.01070
C231        C  0.74602324  0.25100144  0.38759832    -0.11110
C232        C  0.74693200  0.21997477  0.40653447     0.03560
C233        C  0.74944569  0.21942118  0.44624671    -0.10530
H234        H  0.74947057  0.30489265  0.46273237     0.09150
H235        H  0.74429282  0.25139655  0.35683456     0.06680
H236        H  0.75008009  0.19529575  0.46086436     0.06530
C237        C  0.77187876  0.26970380  0.57003825    -0.20870
C238        C  0.75017182  0.24782839  0.58974324    -0.08910
C239        C  0.72882330  0.22648816  0.56873261     0.29950
C240        C  0.72915102  0.22730410  0.52899715    -0.20870
C241        C  0.75075722  0.24929270  0.50930639    -0.08920
C242        C  0.77227816  0.27044742  0.53032019     0.29950
F243        F  0.79428848  0.29130405  0.51253623    -0.19450
H244        H  0.78845480  0.28653258  0.58545692     0.18320
H245        H  0.71221180  0.21085882  0.51355920     0.18320
F246        F  0.70818380  0.20426079  0.58651559    -0.19440
C247        C  0.86380105  0.22982154  0.73973702    -0.20870
C248        C  0.86583796  0.25621078  0.76653927    -0.08910
C249        C  0.84168226  0.28245565  0.76554613     0.29950
C250        C  0.81533754  0.28138346  0.73942017    -0.20870
C251        C  0.81244090  0.25428391  0.71382362    -0.08920
C252        C  0.83739089  0.22891603  0.71335014     0.29950
F253        F  0.83502563  0.20224141  0.68914291    -0.19450
H254        H  0.88217490  0.20942659  0.73989429     0.18320
H255        H  0.79618693  0.30105932  0.74026188     0.18320
F256        F  0.84183448  0.30783814  0.79157749    -0.19440
C257        C  0.71700043  0.18547012  0.35857576    -0.20870
C258        C  0.74422591  0.18875109  0.38367600    -0.08910
C259        C  0.77069375  0.16503554  0.38225332     0.29950
C260        C  0.77060470  0.13946563  0.35461436    -0.20870
C261        C  0.74402825  0.13710167  0.32828326    -0.08920
C262        C  0.71678440  0.16001657  0.33111288     0.29950
F263        F  0.69109164  0.15967291  0.30569746    -0.19450
H264        H  0.69656452  0.20380273  0.35908997     0.18320
H265        H  0.79175159  0.12204938  0.35317439     0.18320
F266        F  0.79759518  0.16797045  0.40581572    -0.19440
C267        C  0.42069895  0.98082406  0.97394230    -0.20870
C268        C  0.39168081  0.98778835  0.99572668    -0.08910
C269        C  0.39592377  0.99889628  0.03355242     0.29950
C270        C  0.42827707  0.00128861  0.04924481    -0.20870
C271        C  0.45681054  0.99246109  0.02782056    -0.08920
C272        C  0.45278493  0.98249055  0.98991683     0.29950
F273        F  0.47967715  0.97243239  0.96885532    -0.19450
H274        H  0.41879438  0.97285519  0.94463909     0.18320
H275        H  0.43098691  0.00846357  0.07879615     0.18320
F276        F  0.36909186  0.00559474  0.05624199    -0.19440
C277        C  0.58200042  0.01072745  0.12225432    -0.20870
C278        C  0.61136121  0.00999761  0.09983119    -0.08910
C279        C  0.60802890  0.00655082  0.06016210     0.29950
C280        C  0.57599787  0.00528461  0.04359115    -0.20870
C281        C  0.54686263  0.00745392  0.06605689    -0.08920
C282        C  0.55010770  0.00993043  0.10561513     0.29950
F283        F  0.52261804  0.01407865  0.12804293    -0.19450
H284        H  0.58356422  0.01308482  0.15283104     0.18320
H285        H  0.57386192  0.00406574  0.01293298     0.18320
F286        F  0.63537848  0.00661718  0.03705929    -0.19440
C287        C  0.98936172  0.39298716  0.03551157    -0.20870
C288        C  0.99073844  0.39093186  0.99572360    -0.08910
C289        C  0.99505276  0.42100721  0.97468300     0.29950
C290        C  0.99597872  0.45244829  0.99307839    -0.20870
C291        C  0.99286150  0.45445854  0.03266556    -0.08920
C292        C  0.99025482  0.42440828  0.05382428     0.29950
F293        F  0.98762293  0.42554377  0.09224514    -0.19450
H294        H  0.98613560  0.37039475  0.05247937     0.18320
H295        H  0.99783785  0.47533689  0.97631001     0.18320
F296        F  0.99811783  0.42019520  0.93632182    -0.19440
C297        C  0.03279757  0.58200612  0.12077289    -0.20870
C298        C  0.01108453  0.60827419  0.10905090    -0.08910
C299        C  0.98758474  0.60162536  0.07994538     0.29950
C300        C  0.98672492  0.56963068  0.06248435    -0.20870
C301        C  0.00930106  0.54399600  0.07367798    -0.08920
C302        C  0.03200817  0.55034255  0.10329906     0.29950
F303        F  0.05405526  0.52601038  0.11481632    -0.19450
H304        H  0.05136150  0.58612339  0.14277281     0.18320
H305        H  0.96922040  0.56515931  0.03943272     0.18320
F306        F  0.96549334  0.62584347  0.06833825    -0.19440
C307        C  0.92190713  0.01277241  0.12645665    -0.20870
C308        C  0.89231964  0.01136174  0.10438461    -0.08910
C309        C  0.89534907  0.00701887  0.06477897     0.29950
C310        C  0.92714196  0.00581526  0.04783009    -0.20870
C311        C  0.95643131  0.00856315  0.06980635    -0.08920
C312        C  0.95371340  0.01140390  0.10936962     0.29950
F313        F  0.98170534  0.01460043  0.13120884    -0.19450
H314        H  0.92051018  0.01568159  0.15699295     0.18320
H315        H  0.92894571  0.00386926  0.01718862     0.18320
F316        F  0.86785981  0.00600548  0.04193749    -0.19440
C317        C  0.98896847  0.04628209  0.99010379    -0.20870
C318        C  0.99335955  0.04509248  0.02952252    -0.08910
C319        C  0.99630114  0.07547816  0.04995677     0.29950
C320        C  0.99363166  0.10662313  0.03139898    -0.20870
C321        C  0.98758325  0.10817008  0.99208108    -0.08920
C322        C  0.98613595  0.07746567  0.97139880     0.29950
F323        F  0.98162853  0.07725422  0.93323576    -0.19450
H324        H  0.98634146  0.02300747  0.97406017     0.18320
H325        H  0.99496008  0.12948344  0.04829113     0.18320
F326        F  0.00065907  0.07500032  0.08818445    -0.19440
C327        C  0.05136393  0.96505659  0.00102856    -0.20870
C328        C  0.04483553  0.99022878  0.02815102    -0.08910
C329        C  0.07035884  0.01334105  0.03749879     0.29950
C330        C  0.10202090  0.01092918  0.01990613    -0.20870
C331        C  0.10865692  0.98536471  0.99297645    -0.08920
C332        C  0.08284137  0.96240579  0.98374356     0.29950
F333        F  0.08840464  0.93598685  0.95981045    -0.19450
H334        H  0.03228293  0.94648801  0.99425239     0.18320
H335        H  0.12146713  0.02876564  0.02768014     0.18320
F336        F  0.06527717  0.03700198  0.06492948    -0.19440
C337        C  0.03145218  0.95088833  0.10317020    -0.20870
C338        C  0.00931975  0.95643651  0.07288275    -0.08910
C339        C  0.98777663  0.93027324  0.06126193     0.29950
C340        C  0.98891351  0.89876301  0.07961541    -0.20870
C341        C  0.01153915  0.89295971  0.10974285    -0.08920
C342        C  0.03269210  0.91963065  0.12147504     0.29950
F343        F  0.05618023  0.91518783  0.14902706    -0.19450
H344        H  0.04876612  0.97058677  0.11177702     0.18320
H345        H  0.97242498  0.87878189  0.06993383     0.18320
F346        F  0.96694902  0.93466980  0.03107411    -0.19440
C347        C  0.77215442  0.36071643  0.35480576    -0.20870
C348        C  0.74463842  0.36461297  0.32988803    -0.08910
C349        C  0.71646530  0.34340518  0.33440612     0.29950
C350        C  0.71662871  0.31812214  0.36200227    -0.20870
C351        C  0.74471226  0.31324632  0.38555671    -0.08920
C352        C  0.77222086  0.33524601  0.38250259     0.29950
F353        F  0.80000642  0.33060092  0.40441575    -0.19450
H354        H  0.79404987  0.37676676  0.35216528     0.18320
H355        H  0.69545582  0.30097480  0.36363574     0.18320
F356        F  0.68974356  0.34509117  0.31044981    -0.19440
C357        C  0.58099492  0.49290593  0.12434942    -0.20870
C358        C  0.61034508  0.49141986  0.10184672    -0.08910
C359        C  0.60699243  0.49242747  0.06204165     0.29950
C360        C  0.57500233  0.49334176  0.04545833    -0.20870
C361        C  0.54586091  0.49356528  0.06801387    -0.08920
C362        C  0.54902405  0.49383012  0.10765903     0.29950
F363        F  0.52126330  0.49302120  0.13015353    -0.19450
H364        H  0.58268749  0.49247841  0.15503201     0.18320
H365        H  0.57287424  0.49269962  0.01477673     0.18320
F366        F  0.63429671  0.49034375  0.03895903    -0.19440
C367        C  0.95296991  0.49470049  0.11056999    -0.20870
C368        C  0.95522533  0.49310924  0.07088879    -0.08910
C369        C  0.92551783  0.49243272  0.04920090     0.29950
C370        C  0.89408143  0.49167270  0.06702105    -0.20870
C371        C  0.89170356  0.49116616  0.10681116    -0.08920
C372        C  0.92149091  0.49373626  0.12849197     0.29950
F373        F  0.92032256  0.49490090  0.16697756    -0.19450
H374        H  0.97565428  0.49519873  0.12766632     0.18320
H375        H  0.87169830  0.48983571  0.04958282     0.18320
F376        F  0.92701052  0.49134997  0.01069682    -0.19440
C377        C  0.50159915  0.89436680  0.06676280    -0.20870
C378        C  0.48916906  0.89199809  0.10413977    -0.08910
C379        C  0.48115279  0.92231044  0.12366903     0.29950
C380        C  0.48270878  0.95342040  0.10515581    -0.20870
C381        C  0.49399165  0.95550794  0.06766003    -0.08920
C382        C  0.50418139  0.92586122  0.04872867     0.29950
F383        F  0.51528378  0.92719780  0.01232783    -0.19450
H384        H  0.50833170  0.87184763  0.05088719     0.18320
H385        H  0.47398367  0.97591180  0.11986918     0.18320
F386        F  0.47142070  0.92240756  0.16054657    -0.19440
C387        C  0.51309305  0.60196806  0.08115584    -0.20870
C388        C  0.48920859  0.60813276  0.10994801    -0.08910
C389        C  0.46682099  0.58205008  0.12003688     0.29950
C390        C  0.46814907  0.55091603  0.10145777    -0.20870
C391        C  0.49156870  0.54494888  0.07245864    -0.08920
C392        C  0.51432725  0.57057748  0.06249335     0.29950
F393        F  0.53652352  0.56583032  0.03361875    -0.19450
H394        H  0.53052009  0.62158239  0.07277346     0.18320
H395        H  0.45002640  0.53161226  0.10891846     0.18320
F396        F  0.44216709  0.58702388  0.14618044    -0.19440
C397        C  0.63703916  0.22901477  0.74052525    -0.20870
C398        C  0.63523638  0.25467490  0.76826377    -0.08910
C399        C  0.65965502  0.28038203  0.76817454     0.29950
C400        C  0.68572856  0.27975454  0.74168497    -0.20870
C401        C  0.68830980  0.25350146  0.71489308    -0.08920
C402        C  0.66328515  0.22848480  0.71382721     0.29950
F403        F  0.66533002  0.20253556  0.68857878    -0.19450
H404        H  0.61850131  0.20900155  0.74001982     0.18320
H405        H  0.70490364  0.29914309  0.74310231     0.18320
F406        F  0.65993312  0.30484377  0.79529228    -0.19440
C407        C  0.50758423  0.42102222  0.97370784    -0.20870
C408        C  0.50938374  0.39135570  0.99583080    -0.08910
C409        C  0.50894750  0.39436843  0.03569238     0.29950
C410        C  0.50816271  0.42635654  0.05268547    -0.20870
C411        C  0.50765771  0.45581892  0.03049351    -0.08920
C412        C  0.50686749  0.45300492  0.99081936     0.29950
F413        F  0.50737168  0.48110797  0.96867602    -0.19450
H414        H  0.50760486  0.41955946  0.94300054     0.18320
H415        H  0.50923889  0.42822981  0.08337649     0.18320
F416        F  0.51151642  0.36674529  0.05839970    -0.19440
C417        C  0.51006516  0.04748083  0.98848242    -0.20870
C418        C  0.50871785  0.04548897  0.02813441    -0.08910
C419        C  0.50714860  0.07552064  0.04954145     0.29950
C420        C  0.50799675  0.10701803  0.03145165    -0.20870
C421        C  0.51050920  0.10911023  0.99169512    -0.08920
C422        C  0.51036597  0.07888003  0.97029401     0.29950
F423        F  0.51085929  0.07941569  0.93178860    -0.19450
H424        H  0.51234107  0.02474097  0.97155331     0.18320
H425        H  0.50804786  0.12969407  0.04876455     0.18320
F426        F  0.50598654  0.07439559  0.08803337    -0.19440
C427        C  0.08171328  0.53077332  0.98179139    -0.20870
C428        C  0.10805242  0.50948628  0.99417941    -0.08910
C429        C  0.10166099  0.48647102  0.02389311     0.29950
C430        C  0.06989713  0.48579729  0.04142180    -0.20870
C431        C  0.04427969  0.50814108  0.02973862    -0.08920
C432        C  0.05028777  0.53021797  0.99939275     0.29950
F433        F  0.02587364  0.55193035  0.98735518    -0.19450
H434        H  0.08561479  0.54892440  0.95925581     0.18320
H435        H  0.06561558  0.46871581  0.06495841     0.18320
F436        F  0.12594917  0.46474498  0.03610421    -0.19440
C437        C  0.41773445  0.53438432  0.98256841    -0.20870
C438        C  0.39158979  0.51324364  0.99515227    -0.08910
C439        C  0.39862645  0.48952117  0.02409121     0.29950
C440        C  0.43080132  0.48804207  0.04064520    -0.20870
C441        C  0.45626458  0.51007535  0.02855651    -0.08920
C442        C  0.44958036  0.53288378  0.99904090     0.29950
F443        F  0.47373522  0.55452488  0.98684763    -0.19450
H444        H  0.41346511  0.55314908  0.96073272     0.18320
H445        H  0.43554269  0.47057830  0.06376369     0.18320
F446        F  0.37460696  0.46792222  0.03657506    -0.19440
C447        C  0.13754738  0.72734359  0.35878683    -0.20870
C448        C  0.13461093  0.75346270  0.33181264    -0.08910
C449        C  0.15834303  0.77982945  0.33214940     0.29950
C450        C  0.18482979  0.77943271  0.35817152    -0.20870
C451        C  0.18838719  0.75285219  0.38433027    -0.08920
C452        C  0.16411956  0.72709512  0.38505443     0.29950
F453        F  0.16720974  0.70076090  0.40957341    -0.19450
H454        H  0.11957442  0.70681521  0.35909710     0.18320
H455        H  0.20347883  0.79934088  0.35695890     0.18320
F456        F  0.15746619  0.80484139  0.30576286    -0.19440
C457        C  0.33702738  0.72815535  0.38490565    -0.20870
C458        C  0.31263574  0.75400148  0.38443667    -0.08910
C459        C  0.31633030  0.78119095  0.35914076     0.29950
C460        C  0.34282166  0.78146134  0.33319257    -0.20870
C461        C  0.36623532  0.75461331  0.33178800    -0.08920
C462        C  0.36367737  0.72835266  0.35877201     0.29950
F463        F  0.38652907  0.70266697  0.35971981    -0.19450
H464        H  0.33457110  0.70706472  0.40433598     0.18320
H465        H  0.34393688  0.80212475  0.31310760     0.18320
F466        F  0.29350191  0.80697153  0.35863996    -0.19440
C467        C  0.27661787  0.82972232  0.71860635    -0.20870
C468        C  0.24744646  0.81030886  0.71390784    -0.08910
C469        C  0.21876761  0.81786481  0.73570922     0.29950
C470        C  0.21973527  0.84349734  0.76299621    -0.20870
C471        C  0.24946636  0.86183980  0.76944861    -0.08920
C472        C  0.27775036  0.85529619  0.74622470     0.29950
F473        F  0.30663514  0.87312520  0.75048554    -0.19450
H474        H  0.29903388  0.82391570  0.70221767     0.18320
H475        H  0.19758360  0.84773568  0.78032729     0.18320
F476        F  0.19030100  0.79925064  0.73181978    -0.19440
C477        C  0.27512620  0.66597510  0.71969184    -0.20870
C478        C  0.24611742  0.68579487  0.71440621    -0.08910
C479        C  0.21705653  0.67877357  0.73559808     0.29950
C480        C  0.21748807  0.65317981  0.76290324    -0.20870
C481        C  0.24705151  0.63436648  0.76991912    -0.08920
C482        C  0.27572140  0.64044333  0.74724167     0.29950
F483        F  0.30449929  0.62219267  0.75189484    -0.19450
H484        H  0.29781191  0.67137357  0.70374084     0.18320
H485        H  0.19503642  0.64928785  0.77973806     0.18320
F486        F  0.18870747  0.69777581  0.73100515    -0.19440
C487        C  0.23004387  0.72550519  0.56947413    -0.20870
C488        C  0.25188442  0.74708349  0.58947359    -0.08910
C489        C  0.27362724  0.76817340  0.56873006     0.29950
C490        C  0.27312043  0.76786590  0.52898909    -0.20870
C491        C  0.25109118  0.74648735  0.50896439    -0.08920
C492        C  0.22961070  0.72511598  0.52971674     0.29950
F493        F  0.20870085  0.70327944  0.51165495    -0.19450
H494        H  0.21297184  0.70907969  0.58469535     0.18320
H495        H  0.28983618  0.78468841  0.51381528     0.18320
F496        F  0.29592831  0.78857162  0.58679233    -0.19440
loop_ 
_geom_bond_atom_site_label_1 
_geom_bond_atom_site_label_2 
_geom_bond_distance 
_geom_bond_site_symmetry_2 
_ccdc_geom_bond_type 
C1            C2   1.411       .  A
C1            C6   1.413       .  A
C1          C488   1.489       .  S
C2            C3   1.402       .  A
C2            H7   1.083       .  S
C3            C4   1.395       .  A
C3          C478   1.472       .  S
C4            C5   1.396       .  A
C4            H8   1.086       .  S
C5            C6   1.403       .  A
C5          C468   1.474       .  S
C6            H9   1.083       .  S
C10          C11   1.411       .  A
C10          C15   1.413       .  A
C10         C491   1.490       .  S
C11          C12   1.402       .  A
C11          H16   1.083       .  S
C12          C13   1.396       .  A
C12         C458   1.476       .  S
C13          C14   1.397       .  A
C13          H17   1.085       .  S
C14          C15   1.405       .  A
C14         C451   1.480       .  S
C15          H18   1.083       .  S
N19          N20   1.322       .  A
N19          C23   1.350       .  A
N19         Cu27   2.092       .  S
N20          C21   1.338       .  A
N20         Cu26   2.062       .  S
C21          C22   1.384       .  A
C21          H24   1.081       .  S
C22          C23   1.393       .  A
C22         C438   1.488       .  S
C23          H25   1.081   1_556  S
Cu26         N29   2.061       .  S
Cu27         N37   2.093       .  S
Cu28         N30   2.066       .  S
Cu28         N36   2.067       .  S
N29          N30   1.317       .  A
N29          C33   1.344       .  A
N30          C31   1.344       .  A
C31          C32   1.389       .  A
C31          H34   1.081       .  S
C32          C33   1.388       .  A
C32         C481   1.485       .  S
C33          H35   1.080       .  S
N36          N37   1.323       .  A
N36          C40   1.340       .  A
N37          C38   1.350       .  A
C38          C39   1.391       .  A
C38          H41   1.082   1_556  S
C39          C40   1.384       .  A
C39         C428   1.486       .  S
C40          H42   1.081       .  S
N43          N44   1.322       .  A
N43          C47   1.347       .  A
N43         Cu51   2.081       .  S
N44          C45   1.341       .  A
N44         Cu50   2.070       .  S
C45          C46   1.385       .  A
C45          H48   1.081       .  S
C46          C47   1.389       .  A
C46         C421   1.484       .  S
C47          H49   1.082   1_556  S
Cu50         N53   2.070       .  S
Cu51         N61   2.080       .  S
Cu52         N54   2.064       .  S
Cu52         N60   2.064       .  S
N53          N54   1.319       .  A
N53          C57   1.346       .  A
N54          C55   1.342       .  A
C55          C56   1.386       .  A
C55          H58   1.081       .  S
C56          C57   1.387       .  A
C56         C398   1.481       .  S
C57          H59   1.082       .  S
N60          N61   1.321       .  A
N60          C64   1.341       .  A
N61          C62   1.347       .  A
C62          C63   1.390       .  A
C62          H65   1.081   1_556  S
C63          C64   1.384       .  A
C63         C408   1.484       .  S
C64          H66   1.082       .  S
N67          N68   1.323       .  A
N67          C71   1.348       .  A
N67         Cu75   2.087       .  S
N68          C69   1.340       .  A
N68         Cu74   2.068       .  S
C69          C70   1.383       .  A
C69          H72   1.081       .  S
C70          C71   1.389       .  A
C70         C388   1.483       .  S
C71          H73   1.082       .  S
Cu74         N77   2.067       .  S
Cu75         N85   2.086       .  S
Cu76         N78   2.057       .  S
Cu76         N84   2.057       .  S
N77          N78   1.317       .  A
N77          C81   1.345       .  A
N78          C79   1.341       .  A
C79          C80   1.388       .  A
C79          H82   1.081       .  S
C80          C81   1.390       .  A
C80         C461   1.485       .  S
C81          H83   1.080       .  S
N84          N85   1.320       .  A
N84          C88   1.338       .  A
N85          C86   1.349       .  A
C86          C87   1.394       .  A
C86          H89   1.081       .  S
C87          C88   1.386       .  A
C87         C378   1.491       .  S
C88          H90   1.078       .  S
N91          N92   1.321       .  A
N91          C95   1.348       .  A
N91         Cu99   2.086       .  S
N92          C93   1.341       .  A
N92         Cu98   2.062       .  S
C93          C94   1.384       .  A
C93          H96   1.082       .  S
C94          C95   1.391       .  A
C94         C358   1.485       .  S
C95          H97   1.081       .  S
Cu98        N101   2.062       .  S
Cu99        N109   2.086       .  S
Cu100       N102   2.073       .  S
Cu100       N108   2.074       .  S
N101        N102   1.319       .  A
N101        C105   1.342       .  A
N102        C103   1.346       .  A
C103        C104   1.389       .  A
C103        H106   1.081       .  S
C104        C105   1.386       .  A
C104        C348   1.484       .  S
C105        H107   1.080       .  S
N108        N109   1.323       .  A
N108        C112   1.343       .  A
N109        C110   1.347       .  A
C110        C111   1.388       .  A
C110        H113   1.082       .  S
C111        C112   1.384       .  A
C111        C371   1.484       .  S
C112        H114   1.081       .  S
C115        C116   1.358   1_465  D
C115        C328   1.484       .  S
C115        C338   1.484       .  S
C116        C311   1.481       .  S
C116        C318   1.483       .  S
N117        N118   1.323       .  A
N117        C121   1.350       .  A
N117       Cu125   2.094       .  S
N118        C119   1.340       .  A
N118       Cu124   2.071       .  S
C119        C120   1.384       .  A
C119        H122   1.081       .  S
C120        C121   1.391       .  A
C120        C298   1.487       .  S
C121        H123   1.082   1_455  S
Cu124       N127   2.070       .  S
Cu125       N135   2.093       .  S
Cu126       N128   2.061       .  S
Cu126       N134   2.061       .  S
N127        N128   1.318       .  A
N127        C131   1.346       .  A
N128        C129   1.343       .  A
C129        C130   1.386       .  A
C129        H132   1.081       .  S
C130        C131   1.388       .  A
C130        C448   1.482       .  S
C131        H133   1.081       .  S
N134        N135   1.322       .  A
N134        C138   1.339       .  A
N135        C136   1.350       .  A
C136        C137   1.392       .  A
C136        H139   1.082   1_455  S
C137        C138   1.383       .  A
C137        C341   1.486       .  S
C138        H140   1.080       .  S
C141        C142   1.360   1_455  D
C141        C301   1.486       .  S
C141        C431   1.484       .  S
C142        C291   1.488       .  S
C142        C368   1.486       .  S
C143        C144   1.359       .  D
C143        C391   1.483       .  S
C143        C441   1.484       .  S
C144        C361   1.484       .  S
C144        C411   1.482       .  S
C145        C146   1.359   1_545  D
C145        C281   1.484       .  S
C145        C418   1.484       .  S
C146        C271   1.481       .  S
C146        C381   1.480       .  S
N147        N148   1.320       .  A
N147        C151   1.348       .  A
N147       Cu155   2.080       .  S
N148        C149   1.340       .  A
N148       Cu154   2.061       .  S
C149        C150   1.385       .  A
C149        H152   1.081       .  S
C150        C151   1.391       .  A
C150        C278   1.485       .  S
C151        H153   1.081   1_545  S
Cu154       N157   2.061       .  S
Cu155       N165   2.081       .  S
Cu156       N158   2.071       .  S
Cu156       N164   2.072       .  S
N157        N158   1.319       .  A
N157        C161   1.342       .  A
N158        C159   1.345       .  A
C159        C160   1.388       .  A
C159        H162   1.081       .  S
C160        C161   1.385       .  A
C160        C261   1.481       .  S
C161        H163   1.081       .  S
N164        N165   1.323       .  A
N164        C168   1.343       .  A
N165        C166   1.345       .  A
C166        C167   1.389       .  A
C166        H169   1.081   1_545  S
C167        C168   1.385       .  A
C167        C308   1.486       .  S
C168        H170   1.081       .  S
N171        N172   1.321       .  A
N171        C175   1.348       .  A
N171       Cu179   2.088       .  S
N172        C173   1.342       .  A
N172       Cu178   2.064       .  S
C173        C174   1.384       .  A
C173        H176   1.081       .  S
C174        C175   1.390       .  A
C174        C288   1.485       .  S
C175        H177   1.082   1_656  S
Cu178       N181   2.064       .  S
Cu179       N189   2.089       .  S
Cu180       N182   2.068       .  S
Cu180       N188   2.069       .  S
N181        N182   1.320       .  A
N181        C185   1.343       .  A
N182        C183   1.345       .  A
C183        C184   1.386       .  A
C183        H186   1.081       .  S
C184        C185   1.386       .  A
C184        C248   1.479       .  S
C185        H187   1.081       .  S
N188        N189   1.322       .  A
N188        C192   1.343       .  A
N189        C190   1.346       .  A
C190        C191   1.391       .  A
C190        H193   1.081   1_656  S
C191        C192   1.387       .  A
C191        C321   1.490       .  S
C192        H194   1.080       .  S
N195        N196   1.322       .  A
N195        C199   1.349       .  A
N195       Cu203   2.088       .  S
N196        C197   1.340       .  A
N196       Cu202   2.063       .  S
C197        C198   1.383       .  A
C197        H200   1.081       .  S
C198        C199   1.390       .  A
C198        C331   1.484       .  S
C199        H201   1.082   1_566  S
Cu202       N205   2.063       .  S
Cu203       N213   2.089       .  S
Cu204       N206   2.067       .  S
Cu204       N212   2.068       .  S
N205        N206   1.318       .  A
N205        C209   1.342       .  A
N206        C207   1.345       .  A
C207        C208   1.389       .  A
C207        H210   1.081       .  S
C208        C209   1.387       .  A
C208        C471   1.484       .  S
C209        H211   1.081       .  S
N212        N213   1.322       .  A
N212        C216   1.339       .  A
N213        C214   1.349       .  A
C214        C215   1.393       .  A
C214        H217   1.080   1_566  S
C215        C216   1.386       .  A
C215        C268   1.491       .  S
C216        H218   1.081       .  S
C219        C220   1.413       .  A
C219        C224   1.411       .  A
C219        C238   1.488       .  S
C220        C221   1.405       .  A
C220        H225   1.083       .  S
C221        C222   1.397       .  A
C221        C401   1.480       .  S
C222        C223   1.396       .  A
C222        H226   1.085       .  S
C223        C224   1.401       .  A
C223        C251   1.476       .  S
C224        H227   1.083       .  S
C228        C229   1.413       .  A
C228        C233   1.412       .  A
C228        C241   1.488       .  S
C229        C230   1.403       .  A
C229        H234   1.083       .  S
C230        C231   1.395       .  A
C230        C351   1.475       .  S
C231        C232   1.395       .  A
C231        H235   1.086       .  S
C232        C233   1.402       .  A
C232        C258   1.475       .  S
C233        H236   1.083       .  S
C237        C238   1.407       .  A
C237        C242   1.399       .  A
C237        H244   1.083       .  S
C238        C239   1.407       .  A
C239        C240   1.400       .  A
C239        F246   1.357       .  S
C240        C241   1.407       .  A
C240        H245   1.083       .  S
C241        C242   1.407       .  A
C242        F243   1.357       .  S
C247        C248   1.407       .  A
C247        C252   1.401       .  A
C247        H254   1.083       .  S
C248        C249   1.407       .  A
C249        C250   1.393       .  A
C249        F256   1.357       .  S
C250        C251   1.403       .  A
C250        H255   1.083       .  S
C251        C252   1.404       .  A
C252        F253   1.357       .  S
C257        C258   1.402       .  A
C257        C262   1.393       .  A
C257        H264   1.083       .  S
C258        C259   1.403       .  A
C259        C260   1.401       .  A
C259        F266   1.357       .  S
C260        C261   1.407       .  A
C260        H265   1.082       .  S
C261        C262   1.408       .  A
C262        F263   1.357       .  S
C267        C268   1.409       .  A
C267        C272   1.394       .  A
C267        H274   1.081       .  S
C268        C269   1.412   1_556  A
C269        C270   1.401   1_565  A
C269        F276   1.355   1_565  S
C270        C271   1.402   1_545  A
C270        H275   1.083       .  S
C271        C272   1.400   1_554  A
C272        F273   1.356       .  S
C277        C278   1.407       .  A
C277        C282   1.395       .  A
C277        H284   1.082       .  S
C278        C279   1.409       .  A
C279        C280   1.399       .  A
C279        F286   1.356       .  S
C280        C281   1.403       .  A
C280        H285   1.084       .  S
C281        C282   1.402       .  A
C282        F283   1.355       .  S
C287        C288   1.404   1_554  A
C287        C292   1.397       .  A
C287        H294   1.082       .  S
C288        C289   1.411       .  A
C289        C290   1.399       .  A
C289        F296   1.356       .  S
C290        C291   1.401   1_556  A
C290        H295   1.083       .  S
C291        C292   1.406       .  A
C292        F293   1.357       .  S
C297        C298   1.406       .  A
C297        C302   1.393       .  A
C297        H304   1.082       .  S
C298        C299   1.411   1_455  A
C299        C300   1.404       .  A
C299        F306   1.356       .  S
C300        C301   1.404   1_655  A
C300        H305   1.083       .  S
C301        C302   1.401       .  A
C302        F303   1.357       .  S
C307        C308   1.409       .  A
C307        C312   1.399       .  A
C307        H314   1.083       .  S
C308        C309   1.410       .  A
C309        C310   1.396       .  A
C309        F316   1.356       .  S
C310        C311   1.401       .  A
C310        H315   1.084       .  S
C311        C312   1.401       .  A
C312        F313   1.357       .  S
C317        C318   1.400   1_556  A
C317        C322   1.401       .  A
C317        H324   1.083       .  S
C318        C319   1.403       .  A
C319        C320   1.396       .  A
C319        F326   1.357   1_655  S
C320        C321   1.406   1_554  A
C320        H325   1.081       .  S
C321        C322   1.414       .  A
C322        F323   1.356       .  S
C327        C328   1.400       .  A
C327        C332   1.392   1_554  A
C327        H334   1.083   1_554  S
C328        C329   1.406   1_565  A
C329        C330   1.403       .  A
C329        F336   1.357       .  S
C330        C331   1.407   1_544  A
C330        H335   1.082       .  S
C331        C332   1.409       .  A
C332        F333   1.357       .  S
C337        C338   1.398       .  A
C337        C342   1.393       .  A
C337        H344   1.083       .  S
C338        C339   1.405   1_455  A
C339        C340   1.403       .  A
C339        F346   1.357       .  S
C340        C341   1.408   1_655  A
C340        H345   1.082       .  S
C341        C342   1.411       .  A
C342        F343   1.356       .  S
C347        C348   1.408       .  A
C347        C352   1.402       .  A
C347        H354   1.082       .  S
C348        C349   1.410       .  A
C349        C350   1.394       .  A
C349        F356   1.356       .  S
C350        C351   1.401       .  A
C350        H355   1.083       .  S
C351        C352   1.403       .  A
C352        F353   1.357       .  S
C357        C358   1.409       .  A
C357        C362   1.398       .  A
C357        H364   1.083       .  S
C358        C359   1.408       .  A
C359        C360   1.397       .  A
C359        F366   1.356       .  S
C360        C361   1.403       .  A
C360        H365   1.084       .  S
C361        C362   1.402       .  A
C362        F363   1.357       .  S
C367        C368   1.401       .  A
C367        C372   1.400       .  A
C367        H374   1.083       .  S
C368        C369   1.405       .  A
C369        C370   1.397       .  A
C369        F376   1.358       .  S
C370        C371   1.404       .  A
C370        H375   1.082       .  S
C371        C372   1.411       .  A
C372        F373   1.357       .  S
C377        C378   1.409       .  A
C377        C382   1.401       .  A
C377        H384   1.081       .  S
C378        C379   1.413       .  A
C379        C380   1.393       .  A
C379        F386   1.355       .  S
C380        C381   1.397       .  A
C380        H385   1.082       .  S
C381        C382   1.403       .  A
C382        F383   1.356       .  S
C387        C388   1.408       .  A
C387        C392   1.402       .  A
C387        H394   1.082       .  S
C388        C389   1.410       .  A
C389        C390   1.392       .  A
C389        F396   1.356       .  S
C390        C391   1.399       .  A
C390        H395   1.083       .  S
C391        C392   1.405       .  A
C392        F393   1.357       .  S
C397        C398   1.407       .  A
C397        C402   1.403       .  A
C397        H404   1.083       .  S
C398        C399   1.407       .  A
C399        C400   1.393       .  A
C399        F406   1.357       .  S
C400        C401   1.403       .  A
C400        H405   1.083       .  S
C401        C402   1.405       .  A
C402        F403   1.357       .  S
C407        C408   1.409       .  A
C407        C412   1.398       .  A
C407        H414   1.083       .  S
C408        C409   1.408   1_556  A
C409        C410   1.396       .  A
C409        F416   1.356       .  S
C410        C411   1.402       .  A
C410        H415   1.084       .  S
C411        C412   1.402   1_554  A
C412        F413   1.357       .  S
C417        C418   1.400   1_556  A
C417        C422   1.396       .  A
C417        H424   1.080       .  S
C418        C419   1.405       .  A
C419        C420   1.398       .  A
C419        F426   1.357       .  S
C420        C421   1.406   1_554  A
C420        H425   1.082       .  S
C421        C422   1.410       .  A
C422        F423   1.356       .  S
C427        C428   1.407       .  A
C427        C432   1.393       .  A
C427        H434   1.082       .  S
C428        C429   1.411   1_556  A
C429        C430   1.404       .  A
C429        F436   1.356       .  S
C430        C431   1.404       .  A
C430        H435   1.083       .  S
C431        C432   1.401   1_554  A
C432        F433   1.358       .  S
C437        C438   1.407       .  A
C437        C442   1.391       .  A
C437        H444   1.081       .  S
C438        C439   1.412   1_556  A
C439        C440   1.404       .  A
C439        F446   1.356       .  S
C440        C441   1.403       .  A
C440        H445   1.083       .  S
C441        C442   1.400   1_554  A
C442        F443   1.358       .  S
C447        C448   1.407       .  A
C447        C452   1.402       .  A
C447        H454   1.083       .  S
C448        C449   1.408       .  A
C449        C450   1.394       .  A
C449        F456   1.357       .  S
C450        C451   1.404       .  A
C450        H455   1.083       .  S
C451        C452   1.405       .  A
C452        F453   1.357       .  S
C457        C458   1.402       .  A
C457        C462   1.402       .  A
C457        H464   1.083       .  S
C458        C459   1.404       .  A
C459        C460   1.393       .  A
C459        F466   1.358       .  S
C460        C461   1.406       .  A
C460        H465   1.081       .  S
C461        C462   1.411       .  A
C462        F463   1.356       .  S
C467        C468   1.401       .  A
C467        C472   1.401       .  A
C467        H474   1.083       .  S
C468        C469   1.403       .  A
C469        C470   1.395       .  A
C469        F476   1.358       .  S
C470        C471   1.406       .  A
C470        H475   1.082       .  S
C471        C472   1.411       .  A
C472        F473   1.357       .  S
C477        C478   1.400       .  A
C477        C482   1.400       .  A
C477        H484   1.083       .  S
C478        C479   1.403       .  A
C479        C480   1.396       .  A
C479        F486   1.358       .  S
C480        C481   1.406       .  A
C480        H485   1.082       .  S
C481        C482   1.412       .  A
C482        F483   1.356       .  S
C487        C488   1.407       .  A
C487        C492   1.400       .  A
C487        H494   1.083       .  S
C488        C489   1.407       .  A
C489        C490   1.399       .  A
C489        F496   1.357       .  S
C490        C491   1.407       .  A
C490        H495   1.083       .  S
C491        C492   1.408       .  A
C492        F493   1.357       .  S
