geometry optimzed in LAMMPS
_audit_creation_date              2020-12-01 
_audit_creation_method            'lammps2cif' 
_symmetry_space_group_name_H-M    'P1' 
_symmetry_Int_Tables_number       1 
_symmetry_cell_setting            triclinic 
loop_ 
_symmetry_equiv_pos_as_xyz 
  x,y,z 
_cell_length_a                    24.37958401 
_cell_length_b                    24.344881665946783 
_cell_length_c                    26.39072286110471 
_cell_angle_alpha                 90.1701212279774 
_cell_angle_beta                  90.1813732557254 
_cell_angle_gamma                 89.86168569890981 
loop_ 
_atom_site_label 
_atom_site_type_symbol 
_atom_site_fract_x 
_atom_site_fract_y 
_atom_site_fract_z 
_atom_site_charge 
C1          C  0.89535471  0.32243423  0.01687783     0.79700
N2          N  0.93471618  0.36171416  0.01506506    -0.78600
C3          C  0.92040406  0.41540648  0.00949440     0.82200
N4          N  0.86663452  0.42940988  0.00422929    -0.78500
C5          C  0.82740183  0.38989205  0.00435555     0.82300
N6          N  0.84201389  0.33672739  0.01124885    -0.80200
C7          C  0.88726603  0.32692708  0.50035911     0.79700
N8          N  0.92678878  0.36616172  0.50029872    -0.78600
C9          C  0.91250768  0.42020431  0.49992329     0.82200
N10         N  0.85860417  0.43480535  0.49962088    -0.78500
C11         C  0.81919637  0.39560176  0.49930796     0.82300
N12         N  0.83372260  0.34192355  0.50000460    -0.80200
C13         C  0.55503711  0.88426713  0.99385357     0.79700
N14         N  0.53897183  0.83183584  0.00198944    -0.78600
C15         C  0.48528745  0.81925620  0.00753050     0.82200
N16         N  0.44685737  0.85955946  0.00527800    -0.78500
C17         C  0.46244997  0.91261795  0.99886652     0.82300
N18         N  0.51658468  0.92485746  0.99311826    -0.80200
C19         C  0.55173069  0.89650068  0.49187759     0.79700
N20         N  0.53804397  0.84271285  0.49214586    -0.78600
C21         C  0.48477069  0.82701781  0.49221468     0.82200
N22         N  0.44474951  0.86594341  0.49212642    -0.78500
C23         C  0.45820221  0.92014679  0.49163226     0.82300
N24         N  0.51182903  0.93534907  0.49191343    -0.80200
Zn25       Zn  0.98392451  0.98835732  0.96210264     1.49700
Zn26       Zn  0.90206545  0.88632634  0.95653100     1.49400
Zn27       Zn  0.99162787  0.89497589  0.04572723     1.49100
Zn28       Zn  0.88803595  0.97636462  0.04365136     1.49500
O29         O  0.94135433  0.93641057  0.00202707    -1.84600
O30         O  0.97370802  0.97563260  0.88667228    -0.75200
O31         O  0.92147208  0.80741094  0.97165322    -0.75100
O32         O  0.07100967  0.91561288  0.03462346    -0.74600
O33         O  0.92078055  0.90147000  0.88357314    -0.75300
O34         O  0.06435868  0.98182989  0.97779891    -0.74900
O35         O  0.98443594  0.81416198  0.03221155    -0.75400
O36         O  0.90037770  0.96163166  0.11793024    -0.74800
O37         O  0.81993011  0.89441169  0.96404234    -0.75600
O38         O  0.97464471  0.90847004  0.11951096    -0.75000
O39         O  0.81044282  0.95531171  0.02588082    -0.75400
O40         O  0.89518409  0.05822110  0.03396802    -0.75300
O41         O  0.96276660  0.06586060  0.97877156    -0.75100
C42         C  0.94875367  0.93844895  0.86155920     0.76700
C43         C  0.95476550  0.78517943  0.00280106     0.77100
C44         C  0.09339080  0.95171815  0.00681105     0.76100
C45         C  0.93727086  0.93551483  0.14225768     0.76500
C46         C  0.78951156  0.92295252  0.99325428     0.77600
C47         C  0.92702063  0.08781530  0.00735097     0.76700
Zn48       Zn  0.98734137  0.89698156  0.54256414     1.49700
Zn49       Zn  0.89316042  0.89214564  0.45872426     1.49400
Zn50       Zn  0.88777618  0.98194781  0.54655324     1.49100
Zn51       Zn  0.97782506  0.99161697  0.45898016     1.49500
O52         O  0.93663240  0.94080187  0.50173567    -1.84600
O53         O  0.97597589  0.81660566  0.53016838    -0.75200
O54         O  0.81345824  0.90129651  0.47270627    -0.75100
O55         O  0.90696363  0.96984204  0.62040081    -0.74600
O56         O  0.91115674  0.81296833  0.47105786    -0.75300
O57         O  0.97665465  0.91091401  0.61730793    -0.74900
O58         O  0.80817399  0.96278502  0.53443624    -0.75400
O59         O  0.95896010  0.07088960  0.47481482    -0.74800
O60         O  0.90438444  0.90747154  0.38484398    -0.75600
O61         O  0.89516708  0.06225672  0.53354392    -0.75000
O62         O  0.96299748  0.97719995  0.38458972    -0.75400
O63         O  0.05868915  0.98197086  0.47034045    -0.75300
O64         O  0.06591368  0.91428137  0.52569426    -0.75100
C65         C  0.94443735  0.78926988  0.50111992     0.76700
C66         C  0.78515970  0.92997709  0.50339200     0.77100
C67         C  0.94360731  0.94100635  0.64239522     0.76100
C68         C  0.92478020  0.09233125  0.50555926     0.76500
C69         C  0.93298065  0.94259367  0.36116055     0.77600
C70         C  0.08805424  0.94978293  0.49710752     0.76700
C71         C  0.98836510  0.55069897  0.99990894     0.79700
N72         N  0.94892889  0.51177312  0.00459888    -0.78600
C73         C  0.96303347  0.45774433  0.00668678     0.82200
N74         N  0.01678412  0.44292878  0.00468709    -0.78500
C75         C  0.05616879  0.48182971  0.99978850     0.82300
N76         N  0.04180499  0.53560760  0.99779075    -0.80200
C77         C  0.97832602  0.55632055  0.49406106     0.79700
N78         N  0.93971293  0.51658028  0.49734915    -0.78600
C79         C  0.95482634  0.46285572  0.49822388     0.82200
N80         N  0.00893495  0.44909953  0.49634067    -0.78500
C81         C  0.04758453  0.48906500  0.49288444     0.82300
N82         N  0.03203937  0.54251989  0.49214752    -0.80200
C83         C  0.39923095  0.05053486  0.99348742     0.79700
N84         N  0.34520099  0.03820645  0.99529435    -0.78600
C85         C  0.32852233  0.98524212  0.99801500     0.82200
N86         N  0.36653159  0.94429135  0.99975701    -0.78500
C87         C  0.42101150  0.95652603  0.99783164     0.82300
N88         N  0.43717004  0.00978228  0.99492999    -0.80200
C89         C  0.38931784  0.05536162  0.49235529     0.79700
N90         N  0.42900573  0.01626957  0.49223100    -0.78600
C91         C  0.41515578  0.96223274  0.49108800     0.82200
N92         N  0.36140827  0.94749311  0.48956217    -0.78500
C93         C  0.32171969  0.98670429  0.48886137     0.82300
N94         N  0.33588220  0.04048123  0.49091540    -0.80200
Zn95       Zn  0.39732453  0.48449019  0.95988856     1.49700
Zn96       Zn  0.48399702  0.38668947  0.95503112     1.49400
Zn97       Zn  0.49105641  0.47623695  0.04369258     1.49100
Zn98       Zn  0.39305534  0.38960070  0.04269249     1.49500
O99         O  0.44140509  0.43402679  0.00036923    -1.84600
O100        O  0.40766233  0.47159053  0.88509691    -0.75200
O101        O  0.56521316  0.39814212  0.96567080    -0.75100
O102        O  0.48290671  0.55704846  0.03126577    -0.74600
O103        O  0.46580906  0.40125276  0.88168341    -0.75300
O104        O  0.41558774  0.56288828  0.97521647    -0.74900
O105        O  0.56970657  0.45667205  0.02983947    -0.75400
O106        O  0.40679865  0.40399292  0.11707211    -0.74800
O107        O  0.46781743  0.30694360  0.96811093    -0.75600
O108        O  0.47509758  0.46428863  0.11777983    -0.75000
O109        O  0.40553384  0.30941761  0.02943370    -0.75400
O110        O  0.31310310  0.40639136  0.02885925    -0.75300
O111        O  0.31760970  0.47523437  0.97445660    -0.75100
C112        C  0.43499489  0.43631991  0.85990188     0.76700
C113        C  0.59327600  0.42622397  0.99727315     0.77100
C114        C  0.45098191  0.58569871  0.00365646     0.76100
C115        C  0.44001967  0.43506107  0.14096454     0.76500
C116        C  0.43611049  0.28271977  0.99903815     0.77600
C117        C  0.28967770  0.44281394  0.00183922     0.76700
Zn118      Zn  0.47684649  0.39113798  0.45851221     1.49700
Zn119      Zn  0.38286712  0.39741208  0.54190092     1.49400
Zn120      Zn  0.48193355  0.48219302  0.54524463     1.49100
Zn121      Zn  0.39219724  0.49187065  0.45746940     1.49500
O122        O  0.43324977  0.44066180  0.50065677    -1.84600
O123        O  0.45987819  0.31178357  0.47271618    -0.75200
O124        O  0.39568114  0.41023437  0.61670295    -0.75100
O125        O  0.56126766  0.46343325  0.53330970    -0.74600
O126        O  0.39276690  0.31665431  0.52904634    -0.75300
O127        O  0.55715254  0.40151575  0.47196421    -0.74900
O128        O  0.46473874  0.46956935  0.61865801    -0.75400
O129        O  0.41402995  0.57085385  0.47064790    -0.74800
O130        O  0.30438519  0.41739405  0.52652151    -0.75600
O131        O  0.47434285  0.56241526  0.53275715    -0.75000
O132        O  0.31120995  0.48555642  0.47147138    -0.75400
O133        O  0.40490882  0.47519903  0.38300827    -0.75300
O134        O  0.46270678  0.40443018  0.38434505    -0.75100
C135        C  0.42534882  0.28858200  0.50165216     0.76700
C136        C  0.42929098  0.44028802  0.64121473     0.77100
C137        C  0.58498071  0.43069865  0.50278717     0.76100
C138        C  0.44725558  0.59232026  0.50233963     0.76500
C139        C  0.28214470  0.45412598  0.49904410     0.77600
C140        C  0.43340463  0.43888386  0.36009930     0.76700
C141        C  0.43091951  0.43647904  0.80407874    -0.06600
C142        C  0.43425781  0.48692337  0.77870981    -0.17700
C143        C  0.43247883  0.48956720  0.72577337     0.10600
C144        C  0.42764912  0.44059541  0.69714807    -0.06500
C145        C  0.42284046  0.39028269  0.72256218    -0.17800
C146        C  0.42417619  0.38769670  0.77553389     0.10600
S147        S  0.43515097  0.55677648  0.69728196    -0.32700
S148        S  0.41562253  0.32113374  0.80426975    -0.32700
H149        H  0.38484900  0.34022137  0.84577568     0.28600
H150        H  0.39871263  0.54444977  0.65742186     0.28600
H151        H  0.43869411  0.52459046  0.80030484     0.19200
H152        H  0.41858339  0.35259137  0.70097263     0.19200
C153        C  0.43742371  0.43721916  0.19690111    -0.06600
C154        C  0.43274265  0.38773172  0.22364362    -0.17700
C155        C  0.43042766  0.38706174  0.27664111     0.10600
C156        C  0.43300782  0.43705975  0.30403473    -0.06500
C157        C  0.43690248  0.48662668  0.27723924    -0.17800
C158        C  0.43906629  0.48729875  0.22420386     0.10600
S159        S  0.42260979  0.32113282  0.30675585    -0.32700
S160        S  0.44244379  0.55347706  0.19379258    -0.32700
H161        H  0.40799228  0.53938192  0.15294084     0.28600
H162        H  0.38743319  0.34012188  0.34519660     0.28600
H163        H  0.43101646  0.34918912  0.20306397     0.19200
H164        H  0.43872699  0.52516739  0.29779977     0.19200
C165        C  0.42185485  0.22781387  0.50214696    -0.06600
C166        C  0.43585474  0.19861543  0.45791428    -0.17700
C167        C  0.42677864  0.14201462  0.45388501     0.10600
C168        C  0.40345854  0.11374620  0.49505689    -0.06500
C169        C  0.39153558  0.14214328  0.53987203    -0.17800
C170        C  0.40167771  0.19839218  0.54437557     0.10600
S171        S  0.44396652  0.10895761  0.39467182    -0.32700
S172        S  0.38998858  0.22930335  0.60561082    -0.32700
H173        H  0.43604827  0.26396497  0.60341113     0.28600
H174        H  0.40453184  0.06705061  0.39688681     0.28600
H175        H  0.45186347  0.22032441  0.42538622     0.19200
H176        H  0.37478343  0.12007660  0.57190419     0.19200
C177        C  0.41600792  0.10814275  0.99375896    -0.06600
C178        C  0.41800680  0.13504574  0.04063370    -0.17700
C179        C  0.42716840  0.19152216  0.04369788     0.10600
C180        C  0.43350276  0.22221104  0.99869269    -0.06500
C181        C  0.43335569  0.19475408  0.95176480    -0.17800
C182        C  0.42449462  0.13805193  0.94877889     0.10600
S183        S  0.43055509  0.22161878  0.10616562    -0.32700
S184        S  0.42075853  0.10741725  0.88646988    -0.32700
H185        H  0.43299189  0.05328310  0.90084153     0.28600
H186        H  0.47095414  0.26049879  0.09388118     0.28600
H187        H  0.41150969  0.11193450  0.07512352     0.19200
H188        H  0.43792475  0.21793374  0.91704859     0.19200
C189        C  0.22134558  0.46053159  0.49807952    -0.06600
C190        C  0.19785931  0.49118859  0.45837973    -0.17700
C191        C  0.14122798  0.49881083  0.45450249     0.10600
C192        C  0.10636685  0.47541977  0.49106699    -0.06500
C193        C  0.12904562  0.44366650  0.53003640    -0.17800
C194        C  0.18592331  0.43692695  0.53469890     0.10600
S195        S  0.11598285  0.53825943  0.40147363    -0.32700
S196        S  0.20992349  0.40120583  0.59025464    -0.32700
H197        H  0.24812906  0.44216362  0.60338735     0.28600
H198        H  0.06604746  0.50988391  0.39649517     0.28600
H199        H  0.22371723  0.50928275  0.42961628     0.19200
H200        H  0.10242304  0.42665821  0.55880978     0.19200
C201        C  0.22891896  0.44841580  0.00127672    -0.06600
C202        C  0.20475173  0.47660180  0.96035945    -0.17700
C203        C  0.14829354  0.48569634  0.95781751     0.10600
C204        C  0.11438926  0.46636077  0.99700862    -0.06500
C205        C  0.13757587  0.43622805  0.03685437    -0.17800
C206        C  0.19437018  0.42792064  0.04003264     0.10600
S207        S  0.12199856  0.52189250  0.90326644    -0.32700
S208        S  0.21973481  0.39473842  0.09638814    -0.32700
H209        H  0.25933870  0.43538076  0.10635800     0.28600
H210        H  0.07094405  0.49511672  0.90198566     0.28600
H211        H  0.23000461  0.49192351  0.92980128     0.19200
H212        H  0.11159033  0.42187774  0.06731516     0.19200
C213        C  0.14892288  0.95459970  0.49421522    -0.06600
C214        C  0.17087149  0.98900840  0.45659848    -0.17700
C215        C  0.22721003  0.99748255  0.45222163     0.10600
C216        C  0.26336632  0.97169773  0.48649206    -0.06500
C217        C  0.24245658  0.93514388  0.52240898    -0.17800
C218        C  0.18586680  0.92674462  0.52717021     0.10600
S219        S  0.25043133  0.04106973  0.40143497    -0.32700
S220        S  0.16438232  0.88220756  0.57771452    -0.32700
H221        H  0.13055337  0.92243052  0.60003431     0.28600
H222        H  0.30055520  0.01353122  0.39385193     0.28600
H223        H  0.14403364  0.00976985  0.43002176     0.19200
H224        H  0.27021620  0.91527831  0.54880944     0.19200
C225        C  0.94739687  0.72871137  0.50128720    -0.06600
C226        C  0.93963589  0.70048938  0.45526880    -0.17700
C227        C  0.94723380  0.64363595  0.45194103     0.10600
C228        C  0.96288268  0.61430918  0.49568435    -0.06500
C229        C  0.96899161  0.64194927  0.54189854    -0.17800
C230        C  0.96066284  0.69855384  0.54542491     0.10600
S231        S  0.94018293  0.61225692  0.39014688    -0.32700
S232        S  0.96676637  0.72927404  0.60746681    -0.32700
H233        H  0.92307492  0.76641842  0.60057687     0.28600
H234        H  0.93210445  0.55796646  0.40601703     0.28600
H235        H  0.92951742  0.72310927  0.42118524     0.19200
H236        H  0.98076608  0.61921756  0.57548040     0.19200
C237        C  0.15421438  0.95878490  0.00644511    -0.06600
C238        C  0.17707071  0.98966697  0.96679874    -0.17700
C239        C  0.23358359  0.99693683  0.96229459     0.10600
C240        C  0.26926660  0.97315025  0.99826631    -0.06500
C241        C  0.24721479  0.94178255  0.03770312    -0.17800
C242        C  0.19029521  0.93527338  0.04287755     0.10600
S243        S  0.25753894  0.03609788  0.90880570    -0.32700
S244        S  0.16699870  0.89974695  0.09853375    -0.32700
H245        H  0.12855091  0.94073327  0.11099120     0.28600
H246        H  0.30622085  0.00588426  0.90191655     0.28600
H247        H  0.15082022  0.00793093  0.93822929     0.19200
H248        H  0.27437923  0.92452998  0.06612118     0.19200
C249        C  0.95960416  0.72440905  0.00413084    -0.06600
C250        C  0.94719420  0.69435256  0.95991819    -0.17700
C251        C  0.95405307  0.63725496  0.95784786     0.10600
C252        C  0.97430070  0.60932378  0.00077534    -0.06500
C253        C  0.98615069  0.63885662  0.04501919    -0.17800
C254        C  0.97814268  0.69563491  0.04759758     0.10600
S255        S  0.94026641  0.60348044  0.89820722    -0.32700
S256        S  0.99114336  0.72804889  0.10797252    -0.32700
H257        H  0.94396532  0.76143256  0.10610146     0.28600
H258        H  0.92510061  0.55242107  0.91813706     0.28600
H259        H  0.93328542  0.71557394  0.92620530     0.19200
H260        H  0.00166084  0.61734928  0.07800345     0.19200
C261        C  0.95150304  0.93862524  0.80551811    -0.06600
C262        C  0.94632249  0.98885549  0.77993067    -0.17700
C263        C  0.94486937  0.99104653  0.72689667     0.10600
C264        C  0.94781504  0.94185982  0.69835446    -0.06500
C265        C  0.95477704  0.89183157  0.72390603    -0.17800
C266        C  0.95710325  0.88970964  0.77688765     0.10600
S267        S  0.94099832  0.05799791  0.69814509    -0.32700
S268        S  0.96894609  0.82349801  0.80545407    -0.32700
H269        H  0.00205573  0.84351594  0.84514853     0.28600
H270        H  0.97472944  0.04493881  0.65664324     0.28600
H271        H  0.94281735  0.02668848  0.80141090     0.19200
H272        H  0.95812016  0.85397848  0.70242460     0.19200
C273        C  0.93246533  0.94232035  0.30517695    -0.06600
C274        C  0.98255712  0.94796473  0.27975844    -0.17700
C275        C  0.98530902  0.94600330  0.22687315     0.10600
C276        C  0.93692430  0.93758086  0.19822212    -0.06500
C277        C  0.88668314  0.93239643  0.22360171    -0.17800
C278        C  0.88385172  0.93492727  0.27655206     0.10600
S279        S  0.05156338  0.95666592  0.19849188    -0.32700
S280        S  0.81681321  0.93046311  0.30497121    -0.32700
H281        H  0.82756286  0.96872390  0.34378452     0.28600
H282        H  0.03189338  0.98889493  0.15814426     0.28600
H283        H  0.02001021  0.95382445  0.30131471     0.19200
H284        H  0.84926578  0.92655635  0.20198712     0.19200
C285        C  0.45513649  0.65299434  0.50310232    -0.06600
C286        C  0.41977526  0.68611410  0.47379432    -0.17700
C287        C  0.42792422  0.74285638  0.46935618     0.10600
C288        C  0.47188081  0.76787973  0.49554475    -0.06500
C289        C  0.50635212  0.73527002  0.52564108    -0.17800
C290        C  0.49857657  0.67879952  0.53006486     0.10600
S291        S  0.38304907  0.78000320  0.42715353    -0.32700
S292        S  0.54723111  0.64299825  0.56966748    -0.32700
H293        H  0.50652493  0.62470060  0.60332264     0.28600
H294        H  0.42492639  0.81238732  0.40619121     0.28600
H295        H  0.38630492  0.66758156  0.45283830     0.19200
H296        H  0.53992648  0.75407701  0.54632055     0.19200
C297        C  0.60984560  0.91163331  0.49173201    -0.06600
C298        C  0.63210410  0.93713770  0.53472004    -0.17700
C299        C  0.68894410  0.94292576  0.54051760     0.10600
C300        C  0.72444033  0.92501094  0.50123891    -0.06500
C301        C  0.70122382  0.90113141  0.45751379    -0.17800
C302        C  0.64476594  0.89399362  0.45254081     0.10600
S303        S  0.71296481  0.96914210  0.60049571    -0.32700
S304        S  0.61984440  0.86133369  0.39546156    -0.32700
H305        H  0.56855886  0.88789050  0.39469251     0.28600
H306        H  0.75158381  0.92670620  0.60738718     0.28600
H307        H  0.60523563  0.94939286  0.56542986     0.19200
H308        H  0.72720786  0.88752469  0.42665709     0.19200
C309        C  0.46946179  0.76144217  0.01197846    -0.06600
C310        C  0.43684125  0.73865721  0.97368387    -0.17700
C311        C  0.43034798  0.68180076  0.96930441     0.10600
C312        C  0.45533227  0.64655857  0.00552417    -0.06500
C313        C  0.48577779  0.67028653  0.04535356    -0.17800
C314        C  0.49316648  0.72699242  0.04884450     0.10600
S315        S  0.39338296  0.65770786  0.91436037    -0.32700
S316        S  0.53353027  0.75293353  0.10108123    -0.32700
H317        H  0.50743449  0.80444347  0.10383744     0.28600
H318        H  0.43562805  0.62184134  0.89905483     0.28600
H319        H  0.41944337  0.76516021  0.94478296     0.19200
H320        H  0.50448173  0.64453494  0.07409086     0.19200
C321        C  0.72881205  0.91670561  0.98995138    -0.06600
C322        C  0.70763845  0.86868750  0.96766565    -0.17700
C323        C  0.65123014  0.85871612  0.96546228     0.10600
C324        C  0.61418160  0.89670195  0.98755804    -0.06500
C325        C  0.63487712  0.94612466  0.00717960    -0.17800
C326        C  0.69135354  0.95658154  0.00851920     0.10600
S327        S  0.62957204  0.79758003  0.93220195    -0.32700
S328        S  0.71256522  0.02218230  0.03318214    -0.32700
H329        H  0.73186819  0.99906919  0.07871836     0.28600
H330        H  0.58248223  0.82192687  0.91086118     0.28600
H331        H  0.73524116  0.83821863  0.95187764     0.19200
H332        H  0.60701870  0.97623022  0.02318404     0.19200
C333        C  0.90116005  0.26813577  0.50276666    -0.06600
C334        C  0.87383352  0.23638686  0.53879222    -0.17700
C335        C  0.88279717  0.17997604  0.54264024     0.10600
C336        C  0.91853282  0.15324508  0.50792002    -0.06500
C337        C  0.94712750  0.18574634  0.47265400    -0.17800
C338        C  0.93882031  0.24263264  0.46970637     0.10600
S339        S  0.84786025  0.14595125  0.59375029    -0.32700
S340        S  0.97515947  0.27961517  0.42120818    -0.32700
H341        H  0.93161254  0.31532849  0.40920979     0.28600
H342        H  0.89614609  0.12087603  0.61163941     0.28600
H343        H  0.84565879  0.25602195  0.56491373     0.19200
H344        H  0.97499576  0.16667627  0.44597645     0.19200
C345        C  0.76079730  0.41037263  0.49689696    -0.06600
C346        C  0.73782940  0.44125388  0.53635137    -0.17700
C347        C  0.68092301  0.44862295  0.53993423     0.10600
C348        C  0.64592184  0.42588217  0.50214470    -0.06500
C349        C  0.66996719  0.39693031  0.46159811    -0.17800
C350        C  0.72653677  0.38912026  0.45855635     0.10600
S351        S  0.65638184  0.48464716  0.59515581    -0.32700
S352        S  0.75252726  0.35184156  0.40445552    -0.32700
H353        H  0.80315927  0.37930013  0.40223507     0.28600
H354        H  0.62048557  0.44216682  0.60922038     0.28600
H355        H  0.76416478  0.45719968  0.56607982     0.19200
H356        H  0.64461063  0.37997127  0.43166060     0.19200
C357        C  0.92253352  0.14879196  0.01058421    -0.06600
C358        C  0.89039862  0.17174419  0.04958046    -0.17700
C359        C  0.88388070  0.22854487  0.05466249     0.10600
C360        C  0.90982113  0.26391812  0.02006567    -0.06500
C361        C  0.94387857  0.24177759  0.98265048    -0.17800
C362        C  0.94980738  0.18495918  0.97681363     0.10600
S363        S  0.84219513  0.25347330  0.10627232    -0.32700
S364        S  0.98969746  0.16234602  0.92326482    -0.32700
H365        H  0.94770304  0.12845213  0.90412426     0.28600
H366        H  0.86956320  0.30393470  0.11196006     0.28600
H367        H  0.86995287  0.14534506  0.07655370     0.19200
H368        H  0.96315847  0.26892056  0.95551973     0.19200
C369        C  0.76910501  0.40385200  0.99682417    -0.06600
C370        C  0.74635240  0.44715318  0.02477806    -0.17700
C371        C  0.68965497  0.45647604  0.02513656     0.10600
C372        C  0.65430793  0.42180511  0.99648053    -0.06500
C373        C  0.67811098  0.38059604  0.96608743    -0.17800
C374        C  0.73471058  0.37177422  0.96547179     0.11000
S375        S  0.66587083  0.51322313  0.06310186    -0.32700
S376        S  0.76050092  0.31968347  0.92287791    -0.32700
H377        H  0.81027533  0.34653560  0.91260109     0.28600
H378        H  0.64063506  0.47850216  0.09860741     0.28600
H379        H  0.77268315  0.47248772  0.04828590     0.19200
H380        H  0.65253776  0.35445435  0.94267174     0.19200
loop_ 
_geom_bond_atom_site_label_1 
_geom_bond_atom_site_label_2 
_geom_bond_distance 
_geom_bond_site_symmetry_2 
_ccdc_geom_bond_type 
C1            N2   1.357       .  A
C1            N6   1.353       .  A
C1          C360   1.469       .  S
N2            C3   1.360       .  A
C3            N4   1.360       .  A
C3           C73   1.468       .  S
N4            C5   1.358       .  A
C5            N6   1.354       .  A
C5          C369   1.474   1_554  S
C7            N8   1.358       .  A
C7           N12   1.355       .  A
C7          C333   1.472       .  S
N8            C9   1.360       .  A
C9           N10   1.361       .  A
C9           C79   1.466       .  S
N10          C11   1.356       .  A
C11          N12   1.353       .  A
C11         C345   1.469       .  S
C13          N14   1.354   1_556  A
C13          N18   1.361       .  A
C13         C324   1.484       .  S
N14          C15   1.353       .  A
C15          N16   1.356       .  A
C15         C309   1.465       .  S
N16          C17   1.359   1_554  A
C17          N18   1.363       .  A
C17          C87   1.469       .  S
C19          N20   1.352       .  A
C19          N24   1.355       .  A
C19         C297   1.465       .  S
N20          C21   1.355       .  A
C21          N22   1.359       .  A
C21         C288   1.477       .  S
N22          C23   1.361       .  A
C23          N24   1.360       .  A
C23          C91   1.465       .  S
Zn25         O29   1.951   1_556  S
Zn25         O30   2.028       .  S
Zn25         O34   2.009   1_655  S
Zn25         O41   2.003   1_565  S
Zn26         O29   1.958   1_556  S
Zn26         O31   2.018       .  S
Zn26         O33   2.015       .  S
Zn26         O37   2.022       .  S
Zn27         O29   1.960       .  S
Zn27         O32   2.023   1_655  S
Zn27         O35   2.006       .  S
Zn27         O38   2.018       .  S
Zn28         O29   1.959       .  S
Zn28         O36   2.015       .  S
Zn28         O39   2.015       .  S
Zn28         O40   2.018   1_565  S
O30          C42   1.275       .  A
O31          C43   1.274   1_556  A
O32          C44   1.272       .  A
O33          C42   1.273       .  A
O34          C44   1.274   1_556  A
O35          C43   1.272       .  A
O36          C45   1.273       .  A
O37          C46   1.275       .  A
O38          C45   1.274       .  A
O39          C46   1.272   1_554  A
O40          C47   1.274       .  A
O41          C47   1.270   1_556  A
C42         C261   1.481       .  S
C43         C249   1.484       .  S
C44         C237   1.493       .  S
C45         C276   1.478       .  S
C46         C321   1.490       .  S
C47         C357   1.490       .  S
Zn48         O52   1.954       .  S
Zn48         O53   2.003       .  S
Zn48         O57   2.018       .  S
Zn48         O64   2.014   1_655  S
Zn49         O52   1.951       .  S
Zn49         O54   1.991       .  S
Zn49         O56   2.003       .  S
Zn49         O60   2.006       .  S
Zn50         O52   1.954       .  S
Zn50         O55   2.025       .  S
Zn50         O58   2.021       .  S
Zn50         O61   1.995   1_565  S
Zn51         O52   1.958       .  S
Zn51         O59   2.026   1_565  S
Zn51         O62   2.025       .  S
Zn51         O63   2.006   1_655  S
O53          C65   1.272       .  A
O54          C66   1.272       .  A
O55          C67   1.274       .  A
O56          C65   1.272       .  A
O57          C67   1.273       .  A
O58          C66   1.273       .  A
O59          C68   1.275       .  A
O60          C69   1.271       .  A
O61          C68   1.270       .  A
O62          C69   1.275       .  A
O63          C70   1.274       .  A
O64          C70   1.271       .  A
C65         C225   1.476       .  S
C66         C300   1.486       .  S
C67         C264   1.480       .  S
C68         C336   1.492       .  S
C69         C273   1.477       .  S
C70         C213   1.491       .  S
C71          N72   1.358   1_556  A
C71          N76   1.354   1_655  A
C71         C252   1.467   1_556  S
N72          C73   1.360       .  A
C73          N74   1.359   1_655  A
N74          C75   1.357   1_554  A
C75          N76   1.356       .  A
C75         C204   1.470       .  S
C77          N78   1.355       .  A
C77          N82   1.352   1_655  A
C77         C228   1.461       .  S
N78          C79   1.358       .  A
C79          N80   1.361   1_655  A
N80          C81   1.360       .  A
C81          N82   1.355       .  A
C81         C192   1.471       .  S
C83          N84   1.353       .  A
C83          N88   1.355       .  A
C83         C177   1.462       .  S
N84          C85   1.355   1_545  A
C85          N86   1.360       .  A
C85         C240   1.475       .  S
N86          C87   1.363       .  A
C87          N88   1.358   1_565  A
C89          N90   1.356       .  A
C89          N94   1.353       .  A
C89         C168   1.465       .  S
N90          C91   1.359   1_545  A
C91          N92   1.360       .  A
N92          C93   1.358       .  A
C93          N94   1.356   1_565  A
C93         C216   1.471       .  S
Zn95         O99   1.949   1_556  S
Zn95        O100   2.014       .  S
Zn95        O104   2.001       .  S
Zn95        O111   1.996       .  S
Zn96         O99   1.958   1_556  S
Zn96        O101   2.019       .  S
Zn96        O103   2.017       .  S
Zn96        O107   2.013       .  S
Zn97         O99   1.954       .  S
Zn97        O102   2.005       .  S
Zn97        O105   2.009       .  S
Zn97        O108   2.017       .  S
Zn98         O99   1.957       .  S
Zn98        O106   2.020       .  S
Zn98        O109   2.005       .  S
Zn98        O110   2.023       .  S
O100        C112   1.273       .  A
O101        C113   1.275       .  A
O102        C114   1.273       .  A
O103        C112   1.273       .  A
O104        C114   1.270   1_556  A
O105        C113   1.271   1_554  A
O106        C115   1.274       .  A
O107        C116   1.273       .  A
O108        C115   1.273       .  A
O109        C116   1.273   1_554  A
O110        C117   1.273       .  A
O111        C117   1.272   1_556  A
C112        C141   1.476       .  S
C113        C372   1.492       .  S
C114        C312   1.486       .  S
C115        C153   1.479       .  S
C116        C180   1.475       .  S
C117        C201   1.487       .  S
Zn118       O122   1.953       .  S
Zn118       O123   2.013       .  S
Zn118       O127   2.005       .  S
Zn118       O134   2.013       .  S
Zn119       O122   1.955       .  S
Zn119       O124   2.021       .  S
Zn119       O126   2.008       .  S
Zn119       O130   2.013       .  S
Zn120       O122   1.951       .  S
Zn120       O125   2.012       .  S
Zn120       O128   2.008       .  S
Zn120       O131   1.990       .  S
Zn121       O122   1.962       .  S
Zn121       O129   2.025       .  S
Zn121       O132   2.016       .  S
Zn121       O133   2.030       .  S
O123        C135   1.273       .  A
O124        C136   1.274       .  A
O125        C137   1.271       .  A
O126        C135   1.272       .  A
O127        C137   1.274       .  A
O128        C136   1.272       .  A
O129        C138   1.274       .  A
O130        C139   1.272       .  A
O131        C138   1.268       .  A
O132        C139   1.275       .  A
O133        C140   1.275       .  A
O134        C140   1.273       .  A
C135        C165   1.482       .  S
C136        C144   1.477       .  S
C137        C348   1.490       .  S
C138        C285   1.490       .  S
C139        C189   1.490       .  S
C140        C156   1.480       .  S
C141        C142   1.403       .  A
C141        C146   1.414       .  A
C142        C143   1.399       .  A
C142        H151   1.084       .  S
C143        C144   1.414       .  A
C143        S147   1.804       .  S
C144        C145   1.404       .  A
C145        C146   1.400       .  A
C145        H152   1.084       .  S
C146        S148   1.804       .  S
S147        H150   1.407       .  S
S148        H149   1.407       .  S
C153        C154   1.403       .  A
C153        C158   1.415       .  A
C154        C155   1.400       .  A
C154        H163   1.084       .  S
C155        C156   1.415       .  A
C155        S159   1.804       .  S
C156        C157   1.404       .  A
C157        C158   1.401       .  A
C157        H164   1.083       .  S
C158        S160   1.804       .  S
S159        H162   1.407       .  S
S160        H161   1.407       .  S
C165        C166   1.407       .  A
C165        C170   1.417       .  A
C166        C167   1.400       .  A
C166        H175   1.084       .  S
C167        C168   1.410       .  A
C167        S171   1.806       .  S
C168        C169   1.399       .  A
C169        C170   1.397       .  A
C169        H176   1.084       .  S
C170        S172   1.804       .  S
S171        H174   1.405       .  S
S172        H173   1.408       .  S
C177        C178   1.399   1_556  A
C177        C182   1.410       .  A
C178        C179   1.396       .  A
C178        H187   1.084       .  S
C179        C180   1.414   1_554  A
C179        S183   1.804       .  S
C180        C181   1.406       .  A
C181        C182   1.400       .  A
C181        H188   1.084       .  S
C182        S184   1.806       .  S
S183        H186   1.407       .  S
S184        H185   1.404       .  S
C189        C190   1.408       .  A
C189        C194   1.422       .  A
C190        C191   1.396       .  A
C190        H199   1.084       .  S
C191        C192   1.410       .  A
C191        S195   1.805       .  S
C192        C193   1.400       .  A
C193        C194   1.401       .  A
C193        H200   1.084       .  S
C194        S196   1.802       .  S
S195        H198   1.407       .  S
S196        H197   1.408       .  S
C201        C202   1.408   1_554  A
C201        C206   1.420       .  A
C202        C203   1.395       .  A
C202        H211   1.084       .  S
C203        C204   1.409       .  A
C203        S207   1.805       .  S
C204        C205   1.401   1_556  A
C205        C206   1.401       .  A
C205        H212   1.084       .  S
C206        S208   1.802       .  S
S207        H210   1.407       .  S
S208        H209   1.408       .  S
C213        C214   1.409       .  A
C213        C218   1.422       .  A
C214        C215   1.395       .  A
C214        H223   1.083   1_565  S
C215        C216   1.409       .  A
C215        S219   1.805   1_565  S
C216        C217   1.400       .  A
C217        C218   1.401       .  A
C217        H224   1.084       .  S
C218        S220   1.801       .  S
S219        H222   1.407       .  S
S220        H221   1.408       .  S
C225        C226   1.406       .  A
C225        C230   1.415       .  A
C226        C227   1.399       .  A
C226        H235   1.084       .  S
C227        C228   1.410       .  A
C227        S231   1.807       .  S
C228        C229   1.399       .  A
C229        C230   1.395       .  A
C229        H236   1.084       .  S
C230        S232   1.804       .  S
S231        H234   1.402       .  S
S232        H233   1.407       .  S
C237        C238   1.407   1_554  A
C237        C242   1.422       .  A
C238        C239   1.395       .  A
C238        H247   1.083   1_565  S
C239        C240   1.410       .  A
C239        S243   1.805   1_565  S
C240        C241   1.402   1_556  A
C241        C242   1.404       .  A
C241        H248   1.084       .  S
C242        S244   1.801       .  S
S243        H246   1.407       .  S
S244        H245   1.406       .  S
C249        C250   1.408   1_554  A
C249        C254   1.418       .  A
C250        C251   1.401       .  A
C250        H259   1.083       .  S
C251        C252   1.410   1_556  A
C251        S255   1.805       .  S
C252        C253   1.399       .  A
C253        C254   1.397       .  A
C253        H260   1.084   1_655  S
C254        S256   1.803       .  S
S255        H258   1.402       .  S
S256        H257   1.408       .  S
C261        C262   1.404       .  A
C261        C266   1.415       .  A
C262        C263   1.401       .  A
C262        H271   1.083   1_565  S
C263        C264   1.415       .  A
C263        S267   1.802   1_565  S
C264        C265   1.404       .  A
C265        C266   1.400       .  A
C265        H272   1.084       .  S
C266        S268   1.804       .  S
S267        H270   1.407       .  S
S268        H269   1.407   1_655  S
C273        C274   1.402       .  A
C273        C278   1.415       .  A
C274        C275   1.398       .  A
C274        H283   1.084   1_655  S
C275        C276   1.414       .  A
C275        S279   1.802   1_655  S
C276        C277   1.404       .  A
C277        C278   1.400       .  A
C277        H284   1.084       .  S
C278        S280   1.804       .  S
S279        H282   1.407       .  S
S280        H281   1.407       .  S
C285        C286   1.410       .  A
C285        C290   1.421       .  A
C286        C287   1.401       .  A
C286        H295   1.083       .  S
C287        C288   1.412       .  A
C287        S291   1.802       .  S
C288        C289   1.401       .  A
C289        C290   1.394       .  A
C289        H296   1.084       .  S
C290        S292   1.803       .  S
S291        H294   1.407       .  S
S292        H293   1.408       .  S
C297        C298   1.400       .  A
C297        C302   1.407       .  A
C298        C299   1.401       .  A
C298        H307   1.084       .  S
C299        C300   1.419       .  A
C299        S303   1.802       .  S
C300        C301   1.408       .  A
C301        C302   1.393       .  A
C301        H308   1.084       .  S
C302        S304   1.806       .  S
S303        H306   1.408       .  S
S304        H305   1.406       .  S
C309        C310   1.398   1_554  A
C309        C314   1.408       .  A
C310        C311   1.398       .  A
C310        H319   1.085       .  S
C311        C312   1.421   1_556  A
C311        S315   1.802       .  S
C312        C313   1.408       .  A
C313        C314   1.395       .  A
C313        H320   1.084       .  S
C314        S316   1.805       .  S
S315        H318   1.408       .  S
S316        H317   1.407       .  S
C321        C322   1.406       .  A
C321        C326   1.419   1_556  A
C322        C323   1.398       .  A
C322        H331   1.084       .  S
C323        C324   1.417       .  A
C323        S327   1.805       .  S
C324        C325   1.403   1_556  A
C325        C326   1.401       .  A
C325        H332   1.084       .  S
C326        S328   1.799   1_565  S
S327        H330   1.408       .  S
S328        H329   1.408   1_545  S
C333        C334   1.399       .  A
C333        C338   1.410       .  A
C334        C335   1.394       .  A
C334        H343   1.084       .  S
C335        C336   1.422       .  A
C335        S339   1.802       .  S
C336        C337   1.410       .  A
C337        C338   1.401       .  A
C337        H344   1.083       .  S
C338        S340   1.803       .  S
S339        H342   1.406       .  S
S340        H341   1.407       .  S
C345        C346   1.400       .  A
C345        C350   1.408       .  A
C346        C347   1.402       .  A
C346        H355   1.084       .  S
C347        C348   1.422       .  A
C347        S351   1.802       .  S
C348        C349   1.408       .  A
C349        C350   1.394       .  A
C349        H356   1.083       .  S
C350        S352   1.805       .  S
S351        H354   1.408       .  S
S352        H353   1.407       .  S
C357        C358   1.409       .  A
C357        C362   1.422   1_554  A
C358        C359   1.398       .  A
C358        H367   1.084       .  S
C359        C360   1.409       .  A
C359        S363   1.805       .  S
C360        C361   1.398   1_554  A
C361        C362   1.399       .  A
C361        H368   1.085       .  S
C362        S364   1.802       .  S
S363        H366   1.407       .  S
S364        H365   1.408       .  S
C369        C370   1.399   1_556  A
C369        C374   1.412       .  A
C370        C371   1.400       .  A
C370        H379   1.084       .  S
C371        C372   1.422   1_554  A
C371        S375   1.800       .  S
C372        C373   1.408       .  A
C373        C374   1.396       .  A
C373        H380   1.083       .  S
C374        S376   1.805       .  S
S375        H378   1.408       .  S
S376        H377   1.407       .  S
