geometry optimzed in LAMMPS
_audit_creation_date              2020-11-30 
_audit_creation_method            'lammps2cif' 
_symmetry_space_group_name_H-M    'P1' 
_symmetry_Int_Tables_number       1 
_symmetry_cell_setting            triclinic 
loop_ 
_symmetry_equiv_pos_as_xyz 
  x,y,z 
_cell_length_a                    56.90334491 
_cell_length_b                    30.366059594717854 
_cell_length_c                    29.31646552055693 
_cell_angle_alpha                 89.73987334665199 
_cell_angle_beta                  90.20758260483909 
_cell_angle_gamma                 89.92821256330608 
loop_ 
_atom_site_label 
_atom_site_type_symbol 
_atom_site_fract_x 
_atom_site_fract_y 
_atom_site_fract_z 
_atom_site_charge 
O1          O  0.91340095  0.45578018  0.43170946    -0.56600
C2          C  0.90416289  0.43658970  0.57509971     0.76000
O3          O  0.86649205  0.35499022  0.48451949    -0.57800
C4          C  0.91062385  0.43207820  0.39652167     0.76000
C5          C  0.94154459  0.33859305  0.50165157     0.78400
Cd6        Cd  0.90267174  0.39789212  0.48665514     1.37500
O7          O  0.91311744  0.45582686  0.54073899    -0.56600
O8          O  0.94343486  0.37994141  0.50436883    -0.55400
C9          C  0.85282695  0.38807791  0.48144871     0.78300
O10         O  0.92131590  0.32383255  0.49135188    -0.57800
O11         O  0.89381701  0.40040041  0.56788799    -0.56200
O12         O  0.90478149  0.39241321  0.40340174    -0.56200
O13         O  0.86244350  0.42560023  0.47945197    -0.55400
O14         O  0.62028746  0.27358052  0.45038715    -0.56600
C15         C  0.62798679  0.29679334  0.59542047     0.76000
O16         O  0.66344855  0.38036352  0.50334085    -0.57800
C17         C  0.62201593  0.29705645  0.41453168     0.76000
C18         C  0.58825747  0.39418665  0.50857669     0.78400
Cd19       Cd  0.62800925  0.33477876  0.50415327     1.37500
O20         O  0.61735243  0.27870221  0.56226773    -0.56600
O21         O  0.58664384  0.35280016  0.51249838    -0.55400
C22         C  0.67732730  0.34834729  0.49582129     0.78300
O23         O  0.60882228  0.40934415  0.50261589    -0.57800
O24         O  0.63891943  0.33198323  0.58629315    -0.56200
O25         O  0.62575932  0.33765103  0.42065786    -0.56200
O26         O  0.66813852  0.31066408  0.49155875    -0.55400
O27         O  0.91683312  0.02909176  0.04528131    -0.56600
C28         C  0.91080002  0.04595086  0.89729273     0.76000
O29         O  0.86982568  0.12569210  0.98204379    -0.57800
C30         C  0.91281149  0.05437875  0.07886195     0.76000
C31         C  0.94635005  0.14176798  0.97905195     0.78400
Cd32       Cd  0.90681266  0.08343416  0.98655230     1.37500
O33         O  0.91665111  0.02300252  0.93194270    -0.56600
O34         O  0.94833069  0.10037642  0.97664104    -0.55400
C35         C  0.85672770  0.09243531  0.98910114     0.78300
O36         O  0.92568278  0.15673185  0.98480286    -0.57800
O37         O  0.90267355  0.08395694  0.90526678    -0.56200
O38         O  0.90634334  0.09325159  0.06936058    -0.56200
O39         O  0.86694638  0.05575930  0.99476876    -0.55400
O40         O  0.61923725  0.18963073  0.06389067    -0.56600
C41         C  0.62513062  0.17503498  0.91742192     0.76000
O42         O  0.66632395  0.09036171  0.99811288    -0.57800
C43         C  0.62545290  0.16702140  0.09847936     0.76000
C44         C  0.59194492  0.07177551  0.00492330     0.78400
Cd45       Cd  0.63021287  0.13401272  0.00666540     1.37500
O46         O  0.61856712  0.19575939  0.95275010    -0.56600
O47         O  0.58983181  0.11276025  0.99838569    -0.55400
C48         C  0.68012830  0.12304950  0.00183421     0.78300
O49         O  0.61267017  0.05784468  0.01224691    -0.57800
O50         O  0.63345714  0.13689119  0.92419994    -0.56200
O51         O  0.63414233  0.12955329  0.09029402    -0.56200
O52         O  0.67060555  0.16013206  0.00857197    -0.55400
O53         O  0.40944330  0.20753993  0.46523064    -0.56600
C54         C  0.40272257  0.17669598  0.60679947     0.76000
O55         O  0.36591227  0.09678547  0.51317428    -0.57800
C56         C  0.40914922  0.18547989  0.42849956     0.76000
C57         C  0.44053282  0.08025367  0.51531804     0.78400
Cd58       Cd  0.40174863  0.14212336  0.51445452     1.37500
O59         O  0.41326866  0.19583406  0.57418595    -0.56600
O60         O  0.44248129  0.12063336  0.52495787    -0.55400
C61         C  0.35239697  0.12807624  0.50094273     0.78300
O62         O  0.41998429  0.06714401  0.50532357    -0.57800
O63         O  0.39143863  0.14225276  0.59644788    -0.56200
O64         O  0.40658559  0.14432618  0.43261060    -0.56200
O65         O  0.36184913  0.16533239  0.49505763    -0.55400
O66         O  0.11914543  0.02885749  0.43155134    -0.56600
C67         C  0.12096182  0.05601170  0.57866837     0.76000
O68         O  0.16243675  0.13048944  0.48492001    -0.57800
C69         C  0.11631784  0.05533479  0.39831110     0.76000
C70         C  0.08639414  0.14748633  0.49963157     0.78400
Cd71       Cd  0.12531919  0.08845559  0.48804071     1.37500
O72         O  0.11733790  0.03079116  0.54481668    -0.56600
O73         O  0.08420466  0.10600301  0.50159198    -0.55400
C74         C  0.17569345  0.09676060  0.48345459     0.78300
O75         O  0.10684817  0.16215627  0.49076359    -0.57800
O76         O  0.12681667  0.09530273  0.56999089    -0.56200
O77         O  0.11669712  0.09603883  0.40730542    -0.56200
O78         O  0.16548460  0.05983760  0.48340512    -0.55400
O79         O  0.41237484  0.28158938  0.07787103    -0.56600
C80         C  0.40381116  0.29136211  0.93130476     0.76000
O81         O  0.36588874  0.38142141  0.01062948    -0.57800
C82         C  0.41038320  0.30853627  0.11075110     0.76000
C83         C  0.44178667  0.39361159  0.01346016     0.78400
Cd84       Cd  0.40146770  0.33571487  0.01919666     1.37500
O85         O  0.40698636  0.26912989  0.96766461    -0.56600
O86         O  0.44293498  0.35220540  0.00939749    -0.55400
C87         C  0.35153342  0.35253295  0.02498430     0.78300
O88         O  0.42141302  0.40964139  0.01955747    -0.57800
O89         O  0.39931470  0.33182300  0.93681925    -0.56200
O90         O  0.40440421  0.34745113  0.10053361    -0.56200
O91         O  0.36036512  0.31626032  0.03782632    -0.55400
O92         O  0.11194265  0.46743852  0.04148731    -0.56600
C93         C  0.11902720  0.44355846  0.90123958     0.76000
O94         O  0.16151176  0.36292606  0.99269398    -0.57800
C95         C  0.11194407  0.44446945  0.07774186     0.76000
C96         C  0.08689444  0.34411671  0.98256109     0.78400
Cd97       Cd  0.12441613  0.40684550  0.99092451     1.37500
O98         O  0.11917738  0.46789564  0.93632108    -0.56600
O99         O  0.08391346  0.38492412  0.97589991    -0.55400
C100        C  0.17528910  0.39523748  0.99883477     0.78300
O101        O  0.10754250  0.33188744  0.99356476    -0.57800
O102        O  0.12155159  0.40264616  0.90775286    -0.56200
O103        O  0.11717921  0.40422517  0.07334520    -0.56200
O104        O  0.16557380  0.43262573  0.00082473    -0.55400
C105        C  0.28544442  0.34081760  0.04423146    -0.13200
C106        C  0.27658451  0.36993781  0.01108512     0.17200
C107        C  0.29255978  0.39522384  0.98520984     0.03500
C108        C  0.31677213  0.39020743  0.99193187    -0.11700
C109        C  0.32573426  0.35996801  0.02383404    -0.02700
C110        C  0.30974023  0.33561776  0.05089084     0.02800
C111        C  0.25071512  0.37606271  0.00671220     0.09600
N112        N  0.28460678  0.42478184  0.95041247     0.66000
H113        H  0.32864632  0.40905819  0.97066178     0.18900
N114        N  0.31768515  0.30693491  0.08653541     0.76400
H115        H  0.27341132  0.32258942  0.06571856     0.10400
C116        C  0.23554825  0.34125855  0.99459827     0.04100
C117        C  0.21119181  0.34829838  0.99234349    -0.04600
C118        C  0.20129763  0.38947650  0.00275346    -0.23000
C119        C  0.21657225  0.42397936  0.01619004     0.13300
C120        C  0.24095278  0.41707005  0.01751614    -0.12200
N121        N  0.24453253  0.29861731  0.98383164     0.65000
H122        H  0.20000753  0.32127370  0.98228139     0.12900
N123        N  0.20777909  0.46574419  0.03054717     0.61600
H124        H  0.25230254  0.44363160  0.02825701     0.09000
O125        O  0.31699552  0.26584960  0.08045119    -0.39800
O126        O  0.31892777  0.32153551  0.12671162    -0.39000
O127        O  0.28626801  0.46571147  0.95691170    -0.39000
O128        O  0.28261792  0.41072630  0.91015013    -0.36700
O129        O  0.20524444  0.47277285  0.07264232    -0.37600
O130        O  0.20886847  0.49810289  0.00349367    -0.33800
O131        O  0.24473035  0.26915896  0.01432814    -0.35200
O132        O  0.24606348  0.28744100  0.94255034    -0.39500
C133        C  0.11302368  0.05248150  0.70699500    -0.13200
C134        C  0.12065782  0.00967791  0.71690995     0.17200
C135        C  0.12720987  0.98161108  0.68084069     0.03500
C136        C  0.12620069  0.99686709  0.63585500    -0.11700
C137        C  0.11937950  0.04020210  0.62607541    -0.02700
C138        C  0.11265042  0.06819373  0.66217090     0.02800
C139        C  0.11999466  0.49394070  0.76464753     0.09600
N140        N  0.13604042  0.43829854  0.68943084     0.66000
H141        H  0.13173086  0.97524154  0.60862015     0.18900
N142        N  0.10476025  0.11222134  0.65405558     0.76400
H143        H  0.10708385  0.07378019  0.73418367     0.10400
C144        C  0.13160009  0.01632790  0.80027884     0.04100
C145        C  0.13014097  0.50033846  0.84496569    -0.04600
C146        C  0.11743578  0.46205502  0.85484791    -0.23000
C147        C  0.10500640  0.44082611  0.81949207     0.13300
C148        C  0.10630729  0.45702819  0.77495929    -0.12200
N149        N  0.14579338  0.05415951  0.79154951     0.65000
H150        H  0.13977597  0.01696201  0.87172905     0.12900
N151        N  0.08937907  0.40521265  0.82849642     0.61600
H152        H  0.09623196  0.44106179  0.74837931     0.09000
O153        O  0.08298944  0.11999851  0.65421072    -0.39800
O154        O  0.11886887  0.14362742  0.66045719    -0.39000
O155        O  0.12327566  0.40547914  0.68049503    -0.39000
O156        O  0.15788435  0.43284931  0.69443563    -0.36700
O157        O  0.06771626  0.41369271  0.83086154    -0.37600
O158        O  0.09575006  0.36660394  0.81862751    -0.33800
O159        O  0.13803560  0.09174137  0.80191299    -0.35200
O160        O  0.16758454  0.04911654  0.78572671    -0.39500
C161        C  0.12430541  0.99752528  0.28507729    -0.13200
C162        C  0.10684303  0.01783861  0.25829093     0.17200
C163        C  0.09223342  0.04990226  0.27833251     0.03500
C164        C  0.09555518  0.06126631  0.32420200    -0.11700
C165        C  0.11276634  0.04036860  0.35102800    -0.02700
C166        C  0.12727172  0.00819855  0.33109572     0.02800
C167        C  0.10386972  0.50225410  0.21071503     0.09600
N168        N  0.07329209  0.06980424  0.25364654     0.66000
H169        H  0.08431731  0.08601472  0.33920550     0.18900
N170        N  0.14593200  0.48780415  0.35620523     0.76400
H171        H  0.13570643  0.47301894  0.27009695     0.10400
C172        C  0.10921999  0.52866913  0.17240473     0.04100
C173        C  0.11048393  0.50950619  0.12901925    -0.04600
C174        C  0.10711347  0.46405599  0.12304168    -0.23000
C175        C  0.10073477  0.43813237  0.16119284     0.13300
C176        C  0.09895247  0.45747914  0.20424456    -0.12200
N177        N  0.11528974  0.07405447  0.17706574     0.65000
H178        H  0.11547678  0.52992558  0.10035394     0.12900
N179        N  0.09637633  0.39196150  0.15730088     0.61600
H180        H  0.09480777  0.43688501  0.23332054     0.09000
O181        O  0.16683887  0.49931554  0.34837675    -0.39800
O182        O  0.14217340  0.95181021  0.37654091    -0.39000
O183        O  0.05336105  0.05167917  0.25479722    -0.39000
O184        O  0.07453645  0.11019731  0.24368439    -0.36700
O185        O  0.11305284  0.36521479  0.16388655    -0.37600
O186        O  0.07549448  0.37817581  0.15927725    -0.33800
O187        O  0.13665839  0.08429119  0.18148876    -0.35200
O188        O  0.10096721  0.10290935  0.16311180    -0.39500
C189        C  0.38927222  0.19806552  0.73248136    -0.13200
C190        C  0.40754329  0.22664202  0.74465458     0.17200
C191        C  0.42451074  0.23786363  0.71153270     0.03500
C192        C  0.42237826  0.22171427  0.66688973    -0.11700
C193        C  0.40391829  0.19342164  0.65447135    -0.02700
C194        C  0.38740262  0.18115600  0.68820570     0.02800
C195        C  0.40825860  0.24364576  0.79221746     0.09600
N196        N  0.44474417  0.26337856  0.72305591     0.66000
H197        H  0.43563857  0.23054570  0.64209291     0.18900
N198        N  0.36827906  0.15232462  0.67815132     0.76400
H199        H  0.37621971  0.18893467  0.75761204     0.10400
C200        C  0.40404139  0.28832102  0.80199488     0.04100
C201        C  0.40296567  0.30240089  0.84731278    -0.04600
C202        C  0.40545688  0.27287415  0.88418518    -0.23000
C203        C  0.40931378  0.22780485  0.87434382     0.13300
C204        C  0.41077739  0.21381278  0.82871386    -0.12200
N205        N  0.39909131  0.31952187  0.76660623     0.65000
H206        H  0.39957024  0.33693355  0.85344626     0.12900
N207        N  0.41111737  0.19546638  0.90971766     0.61600
H208        H  0.41346806  0.17919442  0.82168463     0.09000
O209        O  0.34830764  0.16856743  0.66967846    -0.39800
O210        O  0.36982876  0.11222850  0.68927508    -0.39000
O211        O  0.46340589  0.24355410  0.73428310    -0.39000
O212        O  0.44607260  0.30259358  0.70893923    -0.36700
O213        O  0.39350045  0.17170972  0.91845588    -0.37600
O214        O  0.43122812  0.18253570  0.92218612    -0.33800
O215        O  0.37815409  0.32380644  0.75295536    -0.35200
O216        O  0.41338196  0.35055779  0.75970003    -0.39500
C217        C  0.40735961  0.20363604  0.30043655    -0.13200
C218        C  0.41830191  0.24466005  0.29580716     0.17200
C219        C  0.42490672  0.26773448  0.33575861     0.03500
C220        C  0.42174812  0.24808865  0.37873818    -0.11700
C221        C  0.41161853  0.20615573  0.38292292    -0.02700
C222        C  0.40388641  0.18440381  0.34310534     0.02800
C223        C  0.41992808  0.26378344  0.24914755     0.09600
N224        N  0.43450876  0.31118451  0.33367384     0.66000
H225        H  0.42729853  0.26574216  0.40892188     0.18900
N226        N  0.39093455  0.14418244  0.34530259     0.76400
H227        H  0.40042449  0.18703434  0.27069614     0.10400
C228        C  0.42847276  0.23895073  0.21192335     0.04100
C229        C  0.42538365  0.25443275  0.16733888    -0.04600
C230        C  0.41455070  0.29507114  0.15865821    -0.23000
C231        C  0.40744830  0.32123842  0.19598571     0.13300
C232        C  0.40962235  0.30490915  0.24044200    -0.12200
N233        N  0.44039707  0.19792746  0.21853271     0.65000
H234        H  0.43151584  0.23437128  0.13938841     0.12900
N235        N  0.39746174  0.36404511  0.18971136     0.61600
H236        H  0.40221992  0.32382444  0.26793097     0.09000
O237        O  0.40076207  0.10872104  0.33367899    -0.39800
O238        O  0.36880248  0.14582450  0.34705673    -0.39000
O239        O  0.42143865  0.34349664  0.34306943    -0.39000
O240        O  0.45649863  0.31598839  0.33584466    -0.36700
O241        O  0.37542955  0.36860137  0.19086432    -0.37600
O242        O  0.41038267  0.39742569  0.19479483    -0.33800
O243        O  0.42980385  0.16260258  0.20912863    -0.35200
O244        O  0.46256218  0.19782338  0.21975062    -0.39500
C245        C  0.28840725  0.14516299  0.46727527    -0.13200
C246        C  0.27725692  0.11275236  0.49358930     0.17200
C247        C  0.29128739  0.08326953  0.51950988     0.03500
C248        C  0.31575227  0.08811615  0.52020891    -0.11700
C249        C  0.32674991  0.12192088  0.49559160    -0.02700
C250        C  0.31282034  0.15023864  0.46826176     0.02800
C251        C  0.25120040  0.10905294  0.49120381     0.09600
N252        N  0.28112275  0.04871315  0.54613469     0.66000
H253        H  0.32610860  0.06597758  0.54116114     0.18900
N254        N  0.32309529  0.18316738  0.43968488     0.76400
H255        H  0.27817558  0.16619192  0.44501829     0.10400
C256        C  0.23629627  0.14575872  0.49804877     0.04100
C257        C  0.21192411  0.14105598  0.49408805    -0.04600
C258        C  0.20172857  0.10033995  0.48351366    -0.23000
C259        C  0.21669343  0.06388884  0.47534635     0.13300
C260        C  0.24109217  0.06872037  0.47899497    -0.12200
N261        N  0.24543811  0.18795737  0.51013653     0.65000
H262        H  0.20089924  0.16949121  0.50036652     0.12900
N263        N  0.20764846  0.02186461  0.46242342     0.61600
H264        H  0.25222045  0.04079866  0.47135458     0.09000
O265        O  0.32156089  0.22307379  0.45111792    -0.39800
O266        O  0.32740725  0.17390980  0.39865087    -0.39000
O267        O  0.28226470  0.50970826  0.53160939    -0.39000
O268        O  0.27763015  0.05501979  0.58807257    -0.36700
O269        O  0.20747290  0.01155652  0.42077447    -0.37600
O270        O  0.20630023  0.99177920  0.49212890    -0.33800
O271        O  0.24680457  0.21745110  0.47979108    -0.35200
O272        O  0.24527143  0.19924362  0.55149580    -0.39500
C273        C  0.54940194  0.47485420  0.01776942    -0.13200
C274        C  0.52844621  0.99392496  0.00145623     0.17200
C275        C  0.52887513  0.03790997  0.98593418     0.03500
C276        C  0.54981420  0.06175234  0.98701144    -0.11700
C277        C  0.57080494  0.04307681  0.00357157    -0.02700
C278        C  0.57050276  0.99886902  0.01888066     0.02800
C279        C  0.50611947  0.46848410  0.00339284     0.09600
N280        N  0.50826478  0.05908512  0.96845042     0.66000
H281        H  0.54948778  0.09532186  0.97474654     0.18900
N282        N  0.59105373  0.47814718  0.03714394     0.76400
H283        H  0.54926139  0.44168752  0.03105133     0.10400
C284        C  0.50387592  0.42673048  0.98298711     0.04100
C285        C  0.48273983  0.40347072  0.98661874    -0.04600
C286        C  0.46342757  0.42080478  0.01034857    -0.23000
C287        C  0.46575714  0.46238878  0.03128225     0.13300
C288        C  0.48698086  0.48563534  0.02774148    -0.12200
N289        N  0.52270006  0.40761410  0.95769302     0.65000
H290        H  0.48142887  0.37168175  0.97038526     0.12900
N291        N  0.44739193  0.48054861  0.05846254     0.61600
H292        H  0.48869132  0.01672298  0.04511555     0.09000
O293        O  0.60117936  0.44862000  0.01427740    -0.39800
O294        O  0.59522105  0.98095091  0.07935771    -0.39000
O295        O  0.49785163  0.08703510  0.99290709    -0.39000
O296        O  0.50478316  0.05954727  0.92592724    -0.36700
O297        O  0.44788677  0.47452252  0.10107624    -0.37600
O298        O  0.43504567  0.01148029  0.04228926    -0.33800
O299        O  0.53473186  0.37718219  0.97569764    -0.35200
O300        O  0.52311980  0.41254269  0.91495089    -0.39500
C301        C  0.00883093  0.18416820  0.96276314    -0.13200
C302        C  0.00713908  0.22614409  0.98200799     0.17200
C303        C  0.98507087  0.24114621  0.99745667     0.03500
C304        C  0.96543270  0.21360161  0.99485504    -0.11700
C305        C  0.96722616  0.17090664  0.97714751    -0.02700
C306        C  0.98920760  0.15651184  0.96016515     0.02800
C307        C  0.02804600  0.25518678  0.98195569     0.09600
N308        N  0.98238441  0.28381082  0.01715244     0.66000
H309        H  0.94881556  0.22541322  0.00791087     0.18900
N310        N  0.99193673  0.11447131  0.93910670     0.76400
H311        H  0.02540929  0.17300817  0.94901241     0.13600
C312        C  0.04939025  0.24332171  0.00350512     0.04100
C313        C  0.06853750  0.27226699  0.00238265    -0.04600
C314        C  0.06702697  0.31276985  0.97935961    -0.23000
C315        C  0.04610095  0.32312487  0.95540497     0.13300
C316        C  0.02691252  0.29458419  0.95724307    -0.12200
N317        N  0.05188300  0.20242746  0.02727662     0.65000
H318        H  0.08450245  0.26328004  0.02040042     0.12900
N319        N  0.04456755  0.36030216  0.92567455     0.61600
H320        H  0.01116092  0.30277237  0.93812019     0.09000
O321        O  0.99376038  0.11247521  0.89627187    -0.39800
O322        O  0.99869838  0.08218732  0.96303123    -0.39000
O323        O  0.97332942  0.31434753  0.99359741    -0.39000
O324        O  0.98311748  0.28757793  0.05997312    -0.36700
O325        O  0.04705314  0.35389056  0.88351047    -0.37600
O326        O  0.03351989  0.39400444  0.93869785    -0.33800
O327        O  0.06348703  0.17179776  0.00903008    -0.35200
O328        O  0.04832433  0.20126816  0.06971067    -0.39500
C329        C  0.79208025  0.06930205  0.01139631    -0.13200
C330        C  0.78115498  0.10207777  0.98499576     0.17200
C331        C  0.79543784  0.13247323  0.96099488     0.03500
C332        C  0.81995481  0.12947639  0.96401861    -0.11700
C333        C  0.83078550  0.09588818  0.98944202    -0.02700
C334        C  0.81654329  0.06534931  0.01307967     0.02800
C335        C  0.75513018  0.10673789  0.98715455     0.09600
N336        N  0.78548288  0.16584866  0.93226799     0.66000
H337        H  0.83055256  0.15283009  0.94520739     0.18900
N338        N  0.82649306  0.03082408  0.04022595     0.76400
H339        H  0.78166878  0.04731546  0.03205737     0.10400
C340        C  0.73960783  0.07072969  0.98137441     0.04100
C341        C  0.71536929  0.07684500  0.98662529    -0.04600
C342        C  0.70599161  0.11816434  0.99782709    -0.23000
C343        C  0.72157268  0.15390069  0.00419838     0.13300
C344        C  0.74574778  0.14771496  0.99923941    -0.12200
N345        N  0.74793380  0.02772789  0.96995799     0.65000
H346        H  0.70383890  0.04891050  0.98169048     0.12900
N347        N  0.71339149  0.19667316  0.01661818     0.61600
H348        H  0.75731659  0.17508941  0.00631055     0.09000
O349        O  0.82615463  0.49193245  0.02517954    -0.39800
O350        O  0.82954409  0.03699087  0.08236570    -0.39000
O351        O  0.78570785  0.20532621  0.94555032    -0.39000
O352        O  0.78309407  0.15812313  0.89025840    -0.36700
O353        O  0.71259019  0.22662729  0.98667474    -0.37600
O354        O  0.71297917  0.20712516  0.05821548    -0.33800
O355        O  0.74932020  0.99889611  0.00100985    -0.35200
O356        O  0.74668323  0.01535429  0.92899975    -0.39500
C357        C  0.48266048  0.48329828  0.49853181    -0.13200
C358        C  0.50300541  0.99907580  0.52026848     0.17200
C359        C  0.50252197  0.04138540  0.53987046     0.03500
C360        C  0.48193846  0.06656306  0.53812225    -0.11700
C361        C  0.46149662  0.05091555  0.51654880    -0.02700
C362        C  0.46205656  0.00875923  0.49635078     0.02800
C363        C  0.52496717  0.47243254  0.51887472     0.09600
N364        N  0.52277170  0.05959584  0.56171821     0.66000
H365        H  0.48208389  0.09865149  0.55369747     0.18900
N366        N  0.44247200  0.49212280  0.47118753     0.76400
H367        H  0.48301680  0.45187144  0.48169052     0.10400
C368        C  0.52592790  0.42888823  0.53578314     0.04100
C369        C  0.54673457  0.40451354  0.53217895    -0.04600
C370        C  0.56692350  0.42235968  0.51168133    -0.23000
C371        C  0.56585649  0.46577720  0.49427749     0.13300
C372        C  0.54502028  0.49023079  0.49801307    -0.12200
N373        N  0.50609037  0.40893721  0.55732524     0.65000
H374        H  0.54704341  0.37133117  0.54575663     0.12900
N375        N  0.58520558  0.48488884  0.47049703     0.61600
H376        H  0.54432012  0.02290205  0.48330710     0.09000
O377        O  0.42993446  0.46228873  0.48864434    -0.39800
O378        O  0.44159592  0.99852550  0.42864850    -0.39000
O379        O  0.53449401  0.08876585  0.54114388    -0.39000
O380        O  0.52494318  0.05572880  0.60438963    -0.36700
O381        O  0.59751015  0.51371157  0.49015931    -0.37600
O382        O  0.58595479  0.48192610  0.42760519    -0.33800
O383        O  0.49332703  0.38301710  0.53462257    -0.35200
O384        O  0.50531469  0.40745936  0.60031013    -0.39500
C385        C  0.64310791  0.26663193  0.71882612    -0.13200
C386        C  0.62344146  0.24171217  0.73135302     0.17200
C387        C  0.60519077  0.23573165  0.69928673     0.03500
C388        C  0.60719465  0.25372412  0.65530153    -0.11700
C389        C  0.62701257  0.27831372  0.64245861    -0.02700
C390        C  0.64507744  0.28493379  0.67503387     0.02800
C391        C  0.62264860  0.22278214  0.77817316     0.09600
N392        N  0.58472583  0.21071120  0.71024363     0.66000
H393        H  0.59305545  0.24863422  0.63116577     0.18900
N394        N  0.66609875  0.30824063  0.66395483     0.76400
H395        H  0.65711523  0.27179461  0.74322908     0.10400
C396        C  0.63895742  0.19049736  0.79224931     0.04100
C397        C  0.63913642  0.17559494  0.83746525    -0.04600
C398        C  0.62387371  0.19336231  0.87022188    -0.23000
C399        C  0.60802429  0.22684370  0.85646900     0.13300
C400        C  0.60723326  0.24060944  0.81053654    -0.12200
N401        N  0.65593069  0.17311932  0.76132406     0.65000
H402        H  0.65173338  0.15065206  0.84713046     0.12900
N403        N  0.59281930  0.24772521  0.88843186     0.61600
H404        H  0.59516090  0.26628316  0.80048185     0.09000
O405        O  0.68438061  0.28647560  0.65482860    -0.39800
O406        O  0.66817458  0.34775958  0.67644954    -0.39000
O407        O  0.56588743  0.23079198  0.71924099    -0.39000
O408        O  0.58375025  0.17090009  0.69825271    -0.36700
O409        O  0.59848817  0.28484811  0.90418333    -0.37600
O410        O  0.57175264  0.23517256  0.89139711    -0.33800
O411        O  0.67649103  0.18865434  0.76154990    -0.35200
O412        O  0.65229538  0.13614141  0.74319208    -0.39500
C413        C  0.62950798  0.18056616  0.22793220    -0.13200
C414        C  0.61590935  0.21853718  0.23449234     0.17200
C415        C  0.60505002  0.23847841  0.19625062     0.03500
C416        C  0.60872941  0.22147046  0.15253869    -0.11700
C417        C  0.62242292  0.18359149  0.14578727    -0.02700
C418        C  0.63241284  0.16240131  0.18444293     0.02800
C419        C  0.61538227  0.23916497  0.28047958     0.09600
N420        N  0.58926895  0.27472493  0.20131562     0.66000
H421        H  0.60030277  0.23758457  0.12380610     0.18900
N422        N  0.64539532  0.12228972  0.18063135     0.76400
H423        H  0.63828960  0.16517592  0.25667849     0.10400
C424        C  0.60923258  0.21530068  0.32013855     0.04100
C425        C  0.61139848  0.23484402  0.36319166    -0.04600
C426        C  0.61979165  0.27804982  0.36799269    -0.23000
C427        C  0.62606091  0.30184224  0.32817653     0.13300
C428        C  0.62367828  0.28237108  0.28516989    -0.12200
N429        N  0.60050745  0.17129677  0.31744684     0.65000
H430        H  0.60645522  0.21596502  0.39300051     0.12900
N431        N  0.63610549  0.34488300  0.33059653     0.61600
H432        H  0.62929727  0.30057013  0.25535693     0.09000
O433        O  0.66755758  0.12358059  0.18104121    -0.39800
O434        O  0.63519426  0.08634789  0.18929296    -0.39000
O435        O  0.59525541  0.31222271  0.18676802    -0.39000
O436        O  0.56777798  0.26687932  0.20796156    -0.36700
O437        O  0.65817331  0.34879968  0.33202696    -0.37600
O438        O  0.62369902  0.37785929  0.31996699    -0.33800
O439        O  0.61346397  0.13983936  0.33037755    -0.35200
O440        O  0.57864348  0.16522414  0.31407730    -0.39500
C441        C  0.00291223  0.29775787  0.53192862    -0.13200
C442        C  0.00369646  0.25812972  0.50776857     0.17200
C443        C  0.98317965  0.24306358  0.48559830     0.03500
C444        C  0.96274106  0.26876223  0.48588465    -0.11700
C445        C  0.96226759  0.30957159  0.50801578    -0.02700
C446        C  0.98240858  0.32332567  0.53260534     0.02800
C447        C  0.02558783  0.23162363  0.50813697     0.09600
N448        N  0.98310464  0.20266497  0.46082090     0.66000
H449        H  0.94749231  0.25748329  0.46711620     0.18900
N450        N  0.98216129  0.36232955  0.55970350     0.76400
H451        H  0.01820804  0.30864197  0.55080255     0.10400
C452        C  0.04678686  0.24740023  0.48934644     0.04100
C453        C  0.06662526  0.22000275  0.48814232    -0.04600
C454        C  0.06587711  0.17704670  0.50600839    -0.23000
C455        C  0.04510411  0.16275668  0.52802744     0.13300
C456        C  0.02523871  0.18989729  0.52848262    -0.12200
N457        N  0.04832810  0.29063039  0.47018881     0.65000
H458        H  0.08245369  0.23203524  0.47197741     0.12900
N459        N  0.04396523  0.12155574  0.55160848     0.61600
H460        H  0.00940292  0.17831872  0.54501585     0.09000
O461        O  0.99244519  0.39642087  0.54530370    -0.39800
O462        O  0.97704943  0.35938761  0.60146249    -0.39000
O463        O  0.97315142  0.16933074  0.47780930    -0.39000
O464        O  0.98766037  0.20330038  0.41873976    -0.36700
O465        O  0.03471024  0.08902040  0.53191511    -0.37600
O466        O  0.04537197  0.12141347  0.59455446    -0.33800
O467        O  0.05874470  0.32039776  0.49230396    -0.35200
O468        O  0.04476047  0.29594624  0.42802519    -0.39500
C469        C  0.89310036  0.46301971  0.69969696    -0.13200
C470        C  0.91288979  0.48844115  0.71004532     0.17200
C471        C  0.92975137  0.99670061  0.67608371     0.03500
C472        C  0.92633807  0.48005564  0.63211129    -0.11700
C473        C  0.90643853  0.45474179  0.62151225    -0.02700
C474        C  0.88976846  0.44594551  0.65596539     0.02800
C475        C  0.91528692  0.00526690  0.75689936     0.09600
N476        N  0.95061352  0.02106654  0.68578194     0.66000
H477        H  0.93954239  0.98627945  0.60641057     0.18900
N478        N  0.86892906  0.42123160  0.64689837     0.76400
H479        H  0.88009310  0.45659978  0.72574377     0.10400
C480        C  0.90645026  0.04687377  0.76863380     0.04100
C481        C  0.90534151  0.05908491  0.81441453    -0.04600
C482        C  0.91311842  0.03063352  0.84942316    -0.23000
C483        C  0.92281059  0.98940465  0.83728903     0.13300
C484        C  0.92355575  0.97696703  0.79127448    -0.12200
N485        N  0.89791316  0.07673881  0.73458726     0.65000
H486        H  0.89806081  0.09102518  0.82241063     0.12900
N487        N  0.93211406  0.95983037  0.87079538     0.61600
H488        H  0.93026231  0.94479585  0.78236035     0.09000
O489        O  0.85034424  0.44146512  0.63600610    -0.39800
O490        O  0.86758207  0.38193616  0.66082893    -0.39000
O491        O  0.96964240  0.00051990  0.69214800    -0.39000
O492        O  0.95128689  0.06151896  0.67590371    -0.36700
O493        O  0.92047567  0.92606276  0.88168221    -0.37600
O494        O  0.95379416  0.96112825  0.87987668    -0.33800
O495        O  0.87609586  0.07917557  0.72715327    -0.35200
O496        O  0.91103067  0.10764873  0.72123620    -0.39500
C497        C  0.90845039  0.44766527  0.26761731    -0.13200
C498        C  0.92160187  0.48625071  0.26220501     0.17200
C499        C  0.93108953  0.00693531  0.30111414     0.03500
C500        C  0.92742905  0.48853086  0.34439249    -0.11700
C501        C  0.91420166  0.44987824  0.34991827    -0.02700
C502        C  0.90454581  0.42949633  0.31081597     0.02800
C503        C  0.92240263  0.00660087  0.21627917     0.09600
N504        N  0.94450308  0.04651318  0.29745421     0.66000
H505        H  0.93496900  0.00471977  0.37382537     0.18900
N506        N  0.88949339  0.39201829  0.31426426     0.76400
H507        H  0.90030836  0.43249565  0.23821120     0.10400
C508        C  0.93223770  0.48432140  0.17879484     0.04100
C509        C  0.92920259  0.50102778  0.13468143    -0.04600
C510        C  0.91591816  0.03921399  0.12661536    -0.23000
C511        C  0.90580249  0.06131570  0.16421580     0.13300
C512        C  0.90946956  0.04521615  0.20853671    -0.12200
N513        N  0.94477113  0.44390363  0.18463398     0.65000
H514        H  0.93700590  0.48343053  0.10648979     0.12900
N515        N  0.89004254  0.09756382  0.15804146     0.61600
H516        H  0.90090781  0.06141737  0.23680255     0.09000
O517        O  0.89760411  0.35442489  0.30503736    -0.39800
O518        O  0.86752218  0.39776253  0.31420697    -0.39000
O519        O  0.93478226  0.08278791  0.30653025    -0.39000
O520        O  0.96663665  0.04403156  0.29832287    -0.36700
O521        O  0.86819476  0.09041495  0.15824546    -0.37600
O522        O  0.89738851  0.13618277  0.16477088    -0.33800
O523        O  0.93471470  0.40824431  0.17443124    -0.35200
O524        O  0.96690572  0.44485005  0.18696471    -0.39500
C525        C  0.78703433  0.41158527  0.47700536    -0.13200
C526        C  0.77805622  0.37202890  0.49452740     0.17200
C527        C  0.79374095  0.33750287  0.50545662     0.03500
C528        C  0.81785890  0.34327712  0.49954232    -0.11700
C529        C  0.82697552  0.38298057  0.48272501    -0.02700
C530        C  0.81123184  0.41731046  0.47070906     0.02800
C531        C  0.75225711  0.36583986  0.49636309     0.09600
N532        N  0.78559242  0.29653526  0.52353411     0.66000
H533        H  0.82954072  0.31663214  0.50920950     0.18900
N534        N  0.81923067  0.45725041  0.44999418     0.76400
H535        H  0.77513370  0.43762833  0.46661364     0.10400
C536        C  0.73738403  0.39536920  0.51959608     0.04100
C537        C  0.71301279  0.38983215  0.51752820    -0.04600
C538        C  0.70304044  0.35440998  0.49386666    -0.23000
C539        C  0.71797108  0.32458046  0.47100590     0.13300
C540        C  0.74226179  0.33111125  0.47172917    -0.12200
N541        N  0.74668369  0.42972412  0.54743932     0.65000
H542        H  0.70190182  0.41245061  0.53604626     0.12900
N543        N  0.70892169  0.28773330  0.44643519     0.61600
H544        H  0.75336832  0.30901256  0.45257758     0.09000
O545        O  0.81797330  0.99274106  0.47206850    -0.39800
O546        O  0.82142336  0.45887235  0.40719532    -0.39000
O547        O  0.78601096  0.26282812  0.49852226    -0.39000
O548        O  0.78448854  0.29165979  0.56622910    -0.36700
O549        O  0.70687859  0.29038531  0.40363773    -0.37600
O550        O  0.70928211  0.25021249  0.46511472    -0.33800
O551        O  0.74443140  0.46920287  0.53451941    -0.35200
O552        O  0.75083232  0.42175506  0.58897704    -0.39500
O553        O  0.91340148  0.95578464  0.43171340    -0.56600
C554        C  0.90416132  0.93659264  0.57510514     0.76000
O555        O  0.86649306  0.85498884  0.48451563    -0.57800
C556        C  0.91062737  0.93208153  0.39652555     0.76000
C557        C  0.94154268  0.83859419  0.50165869     0.78400
Cd558      Cd  0.90267151  0.89789484  0.48665897     1.37500
O559        O  0.91311722  0.95582849  0.54074500    -0.56600
O560        O  0.94343371  0.87994253  0.50437365    -0.55400
C561        C  0.85282748  0.88807560  0.48144306     0.78300
O562        O  0.92131376  0.82383418  0.49136019    -0.57800
O563        O  0.89381399  0.90040505  0.56789218    -0.56200
O564        O  0.90478637  0.89241586  0.40340566    -0.56200
O565        O  0.86244333  0.92559870  0.47944983    -0.55400
O566        O  0.62028682  0.77357550  0.45040088    -0.56600
C567        C  0.62799815  0.79679384  0.59543268     0.76000
O568        O  0.66344967  0.88036059  0.50334518    -0.57800
C569        C  0.62201433  0.79705181  0.41454542     0.76000
C570        C  0.58826008  0.89418200  0.50859564     0.78400
Cd571      Cd  0.62801166  0.83477460  0.50416464     1.37500
O572        O  0.61735907  0.77870257  0.56228569    -0.56600
O573        O  0.58664675  0.85279596  0.51252341    -0.55400
C574        C  0.67732808  0.84834587  0.49581657     0.78300
O575        O  0.60882443  0.90933868  0.50262701    -0.57800
O576        O  0.63893227  0.83198046  0.58629875    -0.56200
O577        O  0.62575757  0.83764647  0.42067114    -0.56200
O578        O  0.66813949  0.81066265  0.49155219    -0.55400
O579        O  0.91683332  0.52908209  0.04527708    -0.56600
C580        C  0.91079797  0.54594194  0.89728797     0.76000
O581        O  0.86982523  0.62567881  0.98204327    -0.57800
C582        C  0.91281177  0.55437049  0.07885668     0.76000
C583        C  0.94634909  0.64175913  0.97904703     0.78400
Cd584      Cd  0.90681240  0.58342330  0.98654781     1.37500
O585        O  0.91664959  0.52299268  0.93193697    -0.56600
O586        O  0.94833040  0.60036771  0.97663472    -0.55400
C587        C  0.85672751  0.59242186  0.98910168     0.78300
O588        O  0.92568157  0.65672154  0.98479853    -0.57800
O589        O  0.90267159  0.58394784  0.90526332    -0.56200
O590        O  0.90634435  0.59324344  0.06935407    -0.56200
O591        O  0.86694647  0.55574603  0.99476871    -0.55400
O592        O  0.61924410  0.68963366  0.06390551    -0.56600
C593        C  0.62513704  0.67504858  0.91744153     0.76000
O594        O  0.66632441  0.59036096  0.99811638    -0.57800
C595        C  0.62545471  0.66701986  0.09849438     0.76000
C596        C  0.59194657  0.57177885  0.00492340     0.78400
Cd597      Cd  0.63021501  0.63401462  0.00667903     1.37500
O598        O  0.61856550  0.69576408  0.95276963    -0.56600
O599        O  0.58983490  0.61276320  0.99838154    -0.55400
C600        C  0.68012979  0.62304653  0.00184380     0.78300
O601        O  0.61267080  0.55784750  0.01225675    -0.57800
O602        O  0.63346854  0.63690830  0.92421721    -0.56200
O603        O  0.63413943  0.62954788  0.09030907    -0.56200
O604        O  0.67060837  0.66012856  0.00859113    -0.55400
O605        O  0.40944372  0.70754135  0.46523163    -0.56600
C606        C  0.40272064  0.67669325  0.60680352     0.76000
O607        O  0.36591079  0.59679066  0.51317213    -0.57800
C608        C  0.40915024  0.68548033  0.42850111     0.76000
C609        C  0.44053014  0.58025671  0.51532139     0.78400
Cd610      Cd  0.40174697  0.64212673  0.51445711     1.37500
O611        O  0.41326499  0.69583551  0.57419038    -0.56600
O612        O  0.44247886  0.62063576  0.52496407    -0.55400
C613        C  0.35239549  0.62808381  0.50094734     0.78300
O614        O  0.41998167  0.56714806  0.50532494    -0.57800
O615        O  0.39143833  0.64224848  0.59645083    -0.56200
O616        O  0.40658563  0.64432696  0.43261343    -0.56200
O617        O  0.36184771  0.66534070  0.49506743    -0.55400
O618        O  0.11914513  0.52886438  0.43155544    -0.56600
C619        C  0.12096256  0.55602331  0.57867428     0.76000
O620        O  0.16243560  0.63049880  0.48492358    -0.57800
C621        C  0.11631666  0.55534108  0.39831493     0.76000
C622        C  0.08639314  0.64749275  0.49963612     0.78400
Cd623      Cd  0.12531846  0.58846370  0.48804480     1.37500
O624        O  0.11733837  0.53080150  0.54482367    -0.56600
O625        O  0.08420425  0.60600939  0.50159834    -0.55400
C626        C  0.17569247  0.59677006  0.48346081     0.78300
O627        O  0.10684680  0.66216344  0.49076626    -0.57800
O628        O  0.12681667  0.59531438  0.56999514    -0.56200
O629        O  0.11669542  0.59604520  0.40730901    -0.56200
O630        O  0.16548386  0.55984682  0.48341186    -0.55400
O631        O  0.41237409  0.78158936  0.07787365    -0.56600
C632        C  0.40380839  0.79135678  0.93130859     0.76000
O633        O  0.36588708  0.88141776  0.01062812    -0.57800
C634        C  0.41038204  0.80853713  0.11075288     0.76000
C635        C  0.44178535  0.89360647  0.01346442     0.78400
Cd636      Cd  0.40146569  0.83571212  0.01919863     1.37500
O637        O  0.40698174  0.76912471  0.96766912    -0.56600
O638        O  0.44293304  0.85220012  0.00940293    -0.55400
C639        C  0.35153193  0.85253069  0.02498660     0.78300
O640        O  0.42141171  0.90963784  0.01955789    -0.57800
O641        O  0.39931414  0.83181869  0.93682177    -0.56200
O642        O  0.40440177  0.84745114  0.10053466    -0.56200
O643        O  0.36036370  0.81625945  0.03783268    -0.55400
O644        O  0.11194209  0.96743325  0.04148434    -0.56600
C645        C  0.11902852  0.94355447  0.90123605     0.76000
O646        O  0.16151111  0.86292289  0.99268613    -0.57800
C647        C  0.11194413  0.94446396  0.07773881     0.76000
C648        C  0.08689200  0.84411447  0.98255879     0.78400
Cd649      Cd  0.12441529  0.90684138  0.99092101     1.37500
O650        O  0.11917797  0.96789240  0.93631702    -0.56600
O651        O  0.08391195  0.88492166  0.97589433    -0.55400
C652        C  0.17528811  0.89523391  0.99883243     0.78300
O653        O  0.10753977  0.83188473  0.99356411    -0.57800
O654        O  0.12155298  0.90264231  0.90775015    -0.56200
O655        O  0.11717935  0.90421971  0.07334192    -0.56200
O656        O  0.16557246  0.93262152  0.00082771    -0.55400
C657        C  0.28544299  0.84081596  0.04423347    -0.13200
C658        C  0.27658328  0.86993378  0.01108471     0.17200
C659        C  0.29255861  0.89521751  0.98520728     0.03500
C660        C  0.31677086  0.89020256  0.99193104    -0.11700
C661        C  0.32573283  0.85996547  0.02383570    -0.02700
C662        C  0.30973874  0.83561624  0.05089333     0.02800
C663        C  0.25071401  0.87605886  0.00671117     0.09600
N664        N  0.28460582  0.92476982  0.95040454     0.66000
H665        H  0.32864512  0.90905161  0.97065946     0.18900
N666        N  0.31768353  0.80693302  0.08653770     0.76400
H667        H  0.27340980  0.82258903  0.06572146     0.10400
C668        C  0.23554699  0.84125386  0.99460088     0.04100
C669        C  0.21119064  0.84829397  0.99234533    -0.04600
C670        C  0.20129664  0.88947315  0.00275157    -0.23000
C671        C  0.21657146  0.92397698  0.01618494     0.13300
C672        C  0.24095196  0.91706742  0.01751115    -0.12200
N673        N  0.24453104  0.79861129  0.98383917     0.65000
H674        H  0.20000626  0.82126843  0.98228597     0.12900
N675        N  0.20777861  0.96574334  0.03053813     0.61600
H676        H  0.25230192  0.94362979  0.02824912     0.09000
O677        O  0.31699276  0.76584772  0.08045383    -0.39800
O678        O  0.31892735  0.82153382  0.12671369    -0.39000
O679        O  0.28627080  0.96570053  0.95689308    -0.39000
O680        O  0.28261321  0.91070539  0.91014624    -0.36700
O681        O  0.20524378  0.97277557  0.07263258    -0.37600
O682        O  0.20886863  0.99809982  0.00348187    -0.33800
O683        O  0.24472704  0.76915522  0.01433805    -0.35200
O684        O  0.24606375  0.78743187  0.94255905    -0.39500
C685        C  0.11302427  0.55249394  0.70700120    -0.13200
C686        C  0.12066034  0.50969163  0.71691691     0.17200
C687        C  0.12721483  0.48162612  0.68084814     0.03500
C688        C  0.12620535  0.49688154  0.63586230    -0.11700
C689        C  0.11938152  0.54021487  0.62608190    -0.02700
C690        C  0.11265075  0.56820571  0.66217679     0.02800
C691        C  0.11999400  0.99392846  0.76464104     0.09600
N692        N  0.13603348  0.93828203  0.68942294     0.66000
H693        H  0.13173696  0.47525692  0.60862802     0.18900
N694        N  0.10475761  0.61223130  0.65406042     0.76400
H695        H  0.10708244  0.57379132  0.73418896     0.10400
C696        C  0.13159670  0.51634173  0.80028921     0.04100
C697        C  0.13014533  0.00032790  0.84495678    -0.04600
C698        C  0.11743702  0.96204931  0.85484382    -0.23000
C699        C  0.10500409  0.94082191  0.81949186     0.13300
C700        C  0.10630416  0.95702048  0.77495762    -0.12200
N701        N  0.14578720  0.55417823  0.79156567     0.65000
H702        H  0.13976873  0.51697420  0.87174087     0.12900
N703        N  0.08937380  0.90521451  0.82850242     0.61600
H704        H  0.09622607  0.94105560  0.74838065     0.09000
O705        O  0.08298625  0.62000317  0.65421481    -0.39800
O706        O  0.11886400  0.64364093  0.66046183    -0.39000
O707        O  0.12326605  0.90546490  0.68049250    -0.39000
O708        O  0.15787742  0.93282841  0.69442228    -0.36700
O709        O  0.06771229  0.91370306  0.83087892    -0.37600
O710        O  0.09573927  0.86660321  0.81863112    -0.33800
O711        O  0.13802462  0.59175717  0.80192707    -0.35200
O712        O  0.16757966  0.54914263  0.78575407    -0.39500
C713        C  0.12430338  0.49752928  0.28508155    -0.13200
C714        C  0.10684170  0.51784379  0.25829439     0.17200
C715        C  0.09223227  0.54990786  0.27833565     0.03500
C716        C  0.09555430  0.56127286  0.32420495    -0.11700
C717        C  0.11276492  0.54037426  0.35103175    -0.02700
C718        C  0.12726928  0.50820203  0.33110028     0.02800
C719        C  0.10387093  0.00224871  0.21071187     0.09600
N720        N  0.07329003  0.56980747  0.25365020     0.66000
H721        H  0.08431670  0.58602190  0.33920795     0.18900
N722        N  0.14593659  0.98780544  0.35619880     0.76400
H723        H  0.13570901  0.97301615  0.27009202     0.10400
C724        C  0.10922135  0.02866348  0.17240156     0.04100
C725        C  0.11048523  0.00950040  0.12901624    -0.04600
C726        C  0.10711413  0.96405040  0.12303877    -0.23000
C727        C  0.10073527  0.93812699  0.16118992     0.13300
C728        C  0.09895348  0.95747377  0.20424171    -0.12200
N729        N  0.11528889  0.57405986  0.17706926     0.65000
H730        H  0.11547821  0.02991955  0.10035093     0.12900
N731        N  0.09637549  0.89195660  0.15729760     0.61600
H732        H  0.09480861  0.93687989  0.23331776     0.09000
O733        O  0.16684243  0.99932160  0.34836748    -0.39800
O734        O  0.14216576  0.45180897  0.37654529    -0.39000
O735        O  0.05335994  0.55167866  0.25479950    -0.39000
O736        O  0.07453249  0.61020085  0.24368851    -0.36700
O737        O  0.11305048  0.86520784  0.16388904    -0.37600
O738        O  0.07549296  0.87817372  0.15926768    -0.33800
O739        O  0.13665775  0.58429576  0.18149058    -0.35200
O740        O  0.10096633  0.60291551  0.16311716    -0.39500
C741        C  0.38927251  0.69805406  0.73248779    -0.13200
C742        C  0.40754233  0.72663364  0.74466018     0.17200
C743        C  0.42450853  0.73785912  0.71153728     0.03500
C744        C  0.42237556  0.72171150  0.66689388    -0.11700
C745        C  0.40391671  0.69341614  0.65447621    -0.02700
C746        C  0.38740276  0.68114550  0.68821184     0.02800
C747        C  0.40825702  0.74363790  0.79222273     0.09600
N748        N  0.44474149  0.76337566  0.72305976     0.66000
H749        H  0.43563479  0.73054618  0.64209618     0.18900
N750        N  0.36828096  0.65230956  0.67815891     0.76400
H751        H  0.37622107  0.68892006  0.75761931     0.10400
C752        C  0.40403903  0.78831309  0.80199913     0.04100
C753        C  0.40296259  0.80239360  0.84731662    -0.04600
C754        C  0.40545390  0.77286763  0.88418962    -0.23000
C755        C  0.40931092  0.72779812  0.87434930     0.13300
C756        C  0.41077535  0.71380546  0.82871971    -0.12200
N757        N  0.39908900  0.81951315  0.76660971     0.65000
H758        H  0.39956662  0.83692634  0.85344928     0.12900
N759        N  0.41111385  0.69546011  0.90972372     0.61600
H760        H  0.41346638  0.67918698  0.82169116     0.09000
O761        O  0.34830766  0.66854756  0.66969311    -0.39800
O762        O  0.36983441  0.61221324  0.68928000    -0.39000
O763        O  0.46340292  0.74355248  0.73429131    -0.39000
O764        O  0.44607041  0.80258878  0.70893747    -0.36700
O765        O  0.39349846  0.67169666  0.91845387    -0.37600
O766        O  0.43122453  0.68253686  0.92220089    -0.33800
O767        O  0.37815189  0.82379672  0.75295783    -0.35200
O768        O  0.41337944  0.85054936  0.75970341    -0.39500
C769        C  0.40736918  0.70363137  0.30043620    -0.13200
C770        C  0.41830426  0.74466244  0.29580890     0.17200
C771        C  0.42490213  0.76774130  0.33576202     0.03500
C772        C  0.42174368  0.74809410  0.37874096    -0.11700
C773        C  0.41162106  0.70615505  0.38292389    -0.02700
C774        C  0.40389640  0.68439723  0.34310424     0.02800
C775        C  0.41992945  0.76378707  0.24914936     0.09600
N776        N  0.43449636  0.81119756  0.33367982     0.66000
H777        H  0.42728835  0.76575201  0.40892584     0.18900
N778        N  0.39095273  0.64416634  0.34529786     0.76400
H779        H  0.40043868  0.68702519  0.27069453     0.10400
C780        C  0.42847819  0.73895861  0.21192540     0.04100
C781        C  0.42538798  0.75443970  0.16734090    -0.04600
C782        C  0.41455059  0.79507378  0.15865994    -0.23000
C783        C  0.40744508  0.82123839  0.19598699     0.13300
C784        C  0.40961940  0.80490906  0.24044320    -0.12200
N785        N  0.44040831  0.69794121  0.21853468     0.65000
H786        H  0.43152304  0.73438116  0.13939067     0.12900
N787        N  0.39745542  0.86404254  0.18971227     0.61600
H788        H  0.40221401  0.82382114  0.26793115     0.09000
O789        O  0.40078754  0.60871288  0.33367138    -0.39800
O790        O  0.36882033  0.64579192  0.34705508    -0.39000
O791        O  0.42142036  0.84350091  0.34307699    -0.39000
O792        O  0.45648533  0.81601522  0.33585175    -0.36700
O793        O  0.37542286  0.86859298  0.19086248    -0.37600
O794        O  0.41037369  0.89742650  0.19479746    -0.33800
O795        O  0.42981937  0.66261109  0.20913353    -0.35200
O796        O  0.46257351  0.69784778  0.21974584    -0.39500
C797        C  0.28840515  0.64517642  0.46728960    -0.13200
C798        C  0.27725554  0.61276191  0.49359985     0.17200
C799        C  0.29128661  0.58327544  0.51951471     0.03500
C800        C  0.31575142  0.58812202  0.52021209    -0.11700
C801        C  0.32674840  0.62192979  0.49559820    -0.02700
C802        C  0.31281830  0.65025140  0.46827383     0.02800
C803        C  0.25119912  0.60906208  0.49121530     0.09600
N804        N  0.28112273  0.54871475  0.54613467     0.66000
H805        H  0.32610827  0.56598061  0.54115997     0.18900
N806        N  0.32309283  0.68318371  0.43970060     0.76400
H807        H  0.27817288  0.66620851  0.44503693     0.10400
C808        C  0.23629485  0.64576620  0.49806780     0.04100
C809        C  0.21192275  0.64106400  0.49410487    -0.04600
C810        C  0.20172749  0.60034964  0.48352252    -0.23000
C811        C  0.21669248  0.56389984  0.47535030     0.13300
C812        C  0.24109116  0.56873135  0.47899931    -0.12200
N813        N  0.24543650  0.68796208  0.51016644     0.65000
H814        H  0.20089769  0.66949780  0.50038845     0.12900
N815        N  0.20764767  0.52187682  0.46242275     0.61600
H816        H  0.25221951  0.54081122  0.47135408     0.09000
O817        O  0.32155824  0.72308889  0.45113814    -0.39800
O818        O  0.32740728  0.67393008  0.39866650    -0.39000
O819        O  0.28226598  0.00970399  0.53161740    -0.39000
O820        O  0.27763290  0.55501359  0.58807473    -0.36700
O821        O  0.20747541  0.51157024  0.42077336    -0.37600
O822        O  0.20629636  0.49179044  0.49212662    -0.33800
O823        O  0.24680467  0.71746206  0.47982783    -0.35200
O824        O  0.24526820  0.69923966  0.55152826    -0.39500
C825        C  0.54940170  0.97485105  0.01778708    -0.13200
C826        C  0.52844625  0.49393300  0.00144580     0.17200
C827        C  0.52887548  0.53792135  0.98593404     0.03500
C828        C  0.54981515  0.56176177  0.98701345    -0.11700
C829        C  0.57080607  0.54308152  0.00356712    -0.02700
C830        C  0.57050345  0.49887058  0.01886642     0.02800
C831        C  0.50611979  0.96847503  0.00340467     0.09600
N832        N  0.50826471  0.55910266  0.96846025     0.66000
H833        H  0.54948879  0.59533400  0.97475665     0.18900
N834        N  0.59105299  0.97815098  0.03716495     0.76400
H835        H  0.54926139  0.94168716  0.03107651     0.10400
C836        C  0.50387813  0.92671670  0.98300850     0.04100
C837        C  0.48274151  0.90345838  0.98663750    -0.04600
C838        C  0.46342703  0.92079787  0.01035636    -0.23000
C839        C  0.46575503  0.96238577  0.03128250     0.13300
C840        C  0.48697909  0.98563145  0.02774332    -0.12200
N841        N  0.52270487  0.90759365  0.95772707     0.65000
H842        H  0.48143198  0.87166607  0.97041046     0.12900
N843        N  0.44738777  0.98055085  0.05845387     0.61600
H844        H  0.48869454  0.51672315  0.04512014     0.09000
O845        O  0.60118030  0.94862064  0.01430557    -0.39800
O846        O  0.59522318  0.48093862  0.07933684    -0.39000
O847        O  0.49785317  0.58704589  0.99292774    -0.39000
O848        O  0.50478194  0.55957930  0.92593753    -0.36700
O849        O  0.44787516  0.97452002  0.10106715    -0.37600
O850        O  0.43504348  0.51147094  0.04230168    -0.33800
O851        O  0.53473292  0.87716255  0.97574268    -0.35200
O852        O  0.52313080  0.91251617  0.91498450    -0.39500
C853        C  0.00882945  0.68416428  0.96276270    -0.13200
C854        C  0.00713650  0.72613994  0.98200796     0.17200
C855        C  0.98506749  0.74114049  0.99745441     0.03500
C856        C  0.96542998  0.71359418  0.99485154    -0.11700
C857        C  0.96722469  0.67089936  0.97714401    -0.02700
C858        C  0.98920669  0.65650657  0.96016278     0.02800
C859        C  0.02804308  0.75518406  0.98195690     0.09600
N860        N  0.98237911  0.78380583  0.01714764     0.66000
H861        H  0.94881240  0.72540457  0.00790569     0.18900
N862        N  0.99193690  0.61446734  0.93910210     0.76400
H863        H  0.02540801  0.67300579  0.94901233     0.13600
C864        C  0.04938818  0.74331843  0.00350315     0.04100
C865        C  0.06853515  0.77226444  0.00238039    -0.04600
C866        C  0.06702392  0.81276827  0.97935928    -0.23000
C867        C  0.04609701  0.82312403  0.95540779     0.13300
C868        C  0.02690871  0.79458297  0.95724693    -0.12200
N869        N  0.05188260  0.70242196  0.02726994     0.65000
H870        H  0.08450080  0.76327652  0.02039537     0.12900
N871        N  0.04456255  0.86030190  0.92567837     0.61600
H872        H  0.01115669  0.80277158  0.93812559     0.09000
O873        O  0.99376241  0.61247400  0.89626742    -0.39800
O874        O  0.99869797  0.58218217  0.96302550    -0.39000
O875        O  0.97332373  0.81434013  0.99358980    -0.39000
O876        O  0.98310980  0.78757473  0.05996827    -0.36700
O877        O  0.04704736  0.85389110  0.88351395    -0.37600
O878        O  0.03351411  0.89400283  0.93870294    -0.33800
O879        O  0.06348396  0.67179314  0.00901550    -0.35200
O880        O  0.04832975  0.70125996  0.06970580    -0.39500
C881        C  0.79207934  0.56928514  0.01138875    -0.13200
C882        C  0.78115508  0.60206756  0.98499551     0.17200
C883        C  0.79543857  0.63246707  0.96100216     0.03500
C884        C  0.81995532  0.62946843  0.96402629    -0.11700
C885        C  0.83078531  0.59587485  0.98944312    -0.02700
C886        C  0.81654240  0.56533162  0.01307357     0.02800
C887        C  0.75513062  0.60673057  0.98715501     0.09600
N888        N  0.78548424  0.66584856  0.93228213     0.66000
H889        H  0.83055350  0.65282555  0.94522029     0.18900
N890        N  0.82649138  0.53080116  0.04021385     0.76400
H891        H  0.78166689  0.54729362  0.03204292     0.10400
C892        C  0.73960721  0.57072598  0.98136435     0.04100
C893        C  0.71536895  0.57684232  0.98661842    -0.04600
C894        C  0.70599278  0.61815968  0.99783288    -0.23000
C895        C  0.72157497  0.65389299  0.00421213     0.13300
C896        C  0.74574978  0.64770574  0.99925089    -0.12200
N897        N  0.74793207  0.52772710  0.96993382     0.65000
H898        H  0.70383761  0.54891049  0.98167575     0.12900
N899        N  0.71339523  0.69666382  0.01664145     0.61600
H900        H  0.75731960  0.67507716  0.00632858     0.09000
O901        O  0.82615686  0.99195275  0.02519875    -0.39800
O902        O  0.82954210  0.53696053  0.08235489    -0.39000
O903        O  0.78571211  0.70532424  0.94557016    -0.39000
O904        O  0.78309159  0.65812875  0.89027220    -0.36700
O905        O  0.71259945  0.72662666  0.98670684    -0.37600
O906        O  0.71297848  0.70710397  0.05824179    -0.33800
O907        O  0.74931307  0.49888267  0.00097392    -0.35200
O908        O  0.74668820  0.51537093  0.92896912    -0.39500
C909        C  0.48266413  0.98329479  0.49853632    -0.13200
C910        C  0.50300283  0.49907916  0.52026022     0.17200
C911        C  0.50252023  0.54138835  0.53986340     0.03500
C912        C  0.48193651  0.56656561  0.53811991    -0.11700
C913        C  0.46149372  0.55091826  0.51654978    -0.02700
C914        C  0.46205271  0.50876229  0.49635102     0.02800
C915        C  0.52496991  0.97242929  0.51888759     0.09600
N916        N  0.52277108  0.55959919  0.56170689     0.66000
H917        H  0.48208266  0.59865385  0.55369543     0.18900
N918        N  0.44247714  0.99211984  0.47118342     0.76400
H919        H  0.48302123  0.95186738  0.48169609     0.10400
C920        C  0.52593016  0.92888577  0.53579820     0.04100
C921        C  0.54673693  0.90451073  0.53219727    -0.04600
C922        C  0.56692632  0.92235572  0.51170016    -0.23000
C923        C  0.56585987  0.96577276  0.49429486     0.13300
C924        C  0.54502370  0.99022683  0.49802782    -0.12200
N925        N  0.50609182  0.90893566  0.55733831     0.65000
H926        H  0.54704533  0.87132883  0.54577613     0.12900
N927        N  0.58520954  0.98488323  0.47051519     0.61600
H928        H  0.54431621  0.52290643  0.48329340     0.09000
O929        O  0.42993878  0.96228554  0.48863757    -0.39800
O930        O  0.44158851  0.49852842  0.42865278    -0.39000
O931        O  0.53449284  0.58876746  0.54112871    -0.39000
O932        O  0.52494375  0.55573595  0.60437844    -0.36700
O933        O  0.59751302  0.01370855  0.49017598    -0.37600
O934        O  0.58596114  0.98191461  0.42762399    -0.33800
O935        O  0.49333053  0.88301154  0.53463624    -0.35200
O936        O  0.50531308  0.90746419  0.60032318    -0.39500
C937        C  0.64312915  0.76663400  0.71883318    -0.13200
C938        C  0.62345777  0.74173415  0.73137451     0.17200
C939        C  0.60520024  0.73576920  0.69931912     0.03500
C940        C  0.60720293  0.75375362  0.65533037    -0.11700
C941        C  0.62702638  0.77831983  0.64247274    -0.02700
C942        C  0.64509799  0.78492601  0.67503658     0.02800
C943        C  0.62266673  0.72280772  0.77819702     0.09600
N944        N  0.58472927  0.71077180  0.71029016     0.66000
H945        H  0.59305844  0.74867618  0.63120337     0.18900
N946        N  0.66612536  0.80820616  0.66394078     0.76400
H947        H  0.65714097  0.77178883  0.74322789     0.10400
C948        C  0.63898341  0.69053969  0.79228227     0.04100
C949        C  0.63915871  0.67563438  0.83749694    -0.04600
C950        C  0.62388436  0.69338213  0.87024415    -0.23000
C951        C  0.60802768  0.72684846  0.85648398     0.13300
C952        C  0.60724048  0.74061661  0.81055210    -0.12200
N953        N  0.65596669  0.67317828  0.76136737     0.65000
H954        H  0.65176126  0.65070367  0.84716869     0.12900
N955        N  0.59281086  0.74771149  0.88843860     0.61600
H956        H  0.59516176  0.76627770  0.80049169     0.09000
O957        O  0.68439759  0.78641767  0.65480211    -0.39800
O958        O  0.66821798  0.84772269  0.67643312    -0.39000
O959        O  0.56589915  0.73087406  0.71930115    -0.39000
O960        O  0.58373818  0.67096257  0.69829743    -0.36700
O961        O  0.59846479  0.78484116  0.90419310    -0.37600
O962        O  0.57174792  0.73513423  0.89139144    -0.33800
O963        O  0.67652279  0.68873287  0.76160739    -0.35200
O964        O  0.65234575  0.63619435  0.74323779    -0.39500
C965        C  0.62950269  0.68055868  0.22794900    -0.13200
C966        C  0.61590770  0.71853471  0.23450642     0.17200
C967        C  0.60505295  0.73848081  0.19626279     0.03500
C968        C  0.60873354  0.72147290  0.15255141    -0.11700
C969        C  0.62242384  0.68358949  0.14580217    -0.02700
C970        C  0.63240907  0.66239452  0.18445966     0.02800
C971        C  0.61538045  0.73916302  0.28049302     0.09600
N972        N  0.58927498  0.77473235  0.20132526     0.66000
H973        H  0.60031029  0.73759084  0.12381729     0.18900
N974        N  0.64538855  0.62227937  0.18064963     0.76400
H975        H  0.63828043  0.66516433  0.25669752     0.10400
C976        C  0.60922222  0.71530363  0.32014989     0.04100
C977        C  0.61138831  0.73484586  0.36320357    -0.04600
C978        C  0.61978954  0.77804592  0.36800655    -0.23000
C979        C  0.62606674  0.80183370  0.32819230     0.13300
C980        C  0.62368440  0.78236346  0.28518533    -0.12200
N981        N  0.60048766  0.67130655  0.31745506     0.65000
H982        H  0.60643862  0.71597099  0.39301115     0.12900
N983        N  0.63611936  0.84486770  0.33061521     0.61600
H984        H  0.62930948  0.80055821  0.25537394     0.09000
O985        O  0.66755090  0.62356441  0.18105952    -0.39800
O986        O  0.63518478  0.58634047  0.18931222    -0.39000
O987        O  0.59526733  0.81222999  0.18678662    -0.39000
O988        O  0.56778226  0.76689362  0.20795891    -0.36700
O989        O  0.65818791  0.84876987  0.33204669    -0.37600
O990        O  0.62371911  0.87785269  0.31998738    -0.33800
O991        O  0.61343674  0.63983882  0.33038681    -0.35200
O992        O  0.57862250  0.66525081  0.31408140    -0.39500
C993        C  0.00290987  0.79775945  0.53193594    -0.13200
C994        C  0.00369463  0.75813285  0.50777333     0.17200
C995        C  0.98317809  0.74306667  0.48560222     0.03500
C996        C  0.96273913  0.76876411  0.48589016    -0.11700
C997        C  0.96226526  0.80957236  0.50802336    -0.02700
C998        C  0.98240590  0.82332610  0.53261400     0.02800
C999        C  0.02558613  0.73162766  0.50814114     0.09600
N1000       N  0.98310383  0.70266968  0.46082195     0.66000
H1001       H  0.94749060  0.75748565  0.46712091     0.18900
N1002       N  0.98215795  0.86232858  0.55971427     0.76400
H1003       H  0.01820547  0.80864325  0.55081052     0.10400
C1004       C  0.04678509  0.74740539  0.48935145     0.04100
C1005       C  0.06662385  0.72000883  0.48814806    -0.04600
C1006       C  0.06587583  0.67705228  0.50601299    -0.23000
C1007       C  0.04510258  0.66276077  0.52803013     0.13300
C1008       C  0.02523709  0.68990088  0.52848559    -0.12200
N1009       N  0.04832571  0.79063520  0.47019270     0.65000
H1010       H  0.08245230  0.73204218  0.47198406     0.12900
N1011       N  0.04396307  0.62155776  0.55160711     0.61600
H1012       H  0.00940116  0.67832130  0.54501750     0.09000
O1013       O  0.99243817  0.89642329  0.54531312    -0.39800
O1014       O  0.97704946  0.85938339  0.60147461    -0.39000
O1015       O  0.97315163  0.66933342  0.47780832    -0.39000
O1016       O  0.98765925  0.70330825  0.41874073    -0.36700
O1017       O  0.03470717  0.58902507  0.53191064    -0.37600
O1018       O  0.04536999  0.62141135  0.59455307    -0.33800
O1019       O  0.05874143  0.82040392  0.49230745    -0.35200
O1020       O  0.04475858  0.79594960  0.42802873    -0.39500
C1021       C  0.89310056  0.96302096  0.69970424    -0.13200
C1022       C  0.91289018  0.98844220  0.71005193     0.17200
C1023       C  0.92975137  0.49669978  0.67607789     0.03500
C1024       C  0.92633736  0.98005706  0.63211703    -0.11700
C1025       C  0.90643746  0.95474402  0.62151828    -0.02700
C1026       C  0.88976788  0.94594744  0.65597241     0.02800
C1027       C  0.91528615  0.50526429  0.75689318     0.09600
N1028       N  0.95061317  0.52106655  0.68577676     0.66000
H1029       H  0.93954330  0.48627799  0.60640534     0.18900
N1030       N  0.86892816  0.92123422  0.64690621     0.76400
H1031       H  0.88009355  0.95660115  0.72575165     0.10400
C1032       C  0.90644882  0.54687017  0.76862922     0.04100
C1033       C  0.90533916  0.55907889  0.81441050    -0.04600
C1034       C  0.91311609  0.53062619  0.84941796    -0.23000
C1035       C  0.92280869  0.48939815  0.83728229     0.13300
C1036       C  0.92355461  0.47696285  0.79126721    -0.12200
N1037       N  0.89791254  0.57673709  0.73458367     0.65000
H1038       H  0.89805809  0.59101853  0.82240787     0.12900
N1039       N  0.93211199  0.45982253  0.87078754     0.61600
H1040       H  0.93026151  0.44479234  0.78235176     0.09000
O1041       O  0.85034397  0.94146821  0.63601076    -0.39800
O1042       O  0.86758001  0.88194027  0.66084092    -0.39000
O1043       O  0.96964185  0.50052042  0.69214687    -0.39000
O1044       O  0.95128685  0.56151810  0.67589471    -0.36700
O1045       O  0.92047474  0.42605192  0.88166903    -0.37600
O1046       O  0.95379160  0.46112333  0.87987285    -0.33800
O1047       O  0.87609546  0.57917356  0.72714708    -0.35200
O1048       O  0.91103015  0.60764855  0.72123681    -0.39500
C1049       C  0.90845760  0.94766560  0.26762026    -0.13200
C1050       C  0.92160757  0.98625289  0.26220819     0.17200
C1051       C  0.93108481  0.50693212  0.30111050     0.03500
C1052       C  0.92743336  0.98853437  0.34439640    -0.11700
C1053       C  0.91420663  0.94988086  0.34992196    -0.02700
C1054       C  0.90455266  0.92949697  0.31081905     0.02800
C1055       C  0.92239865  0.50659709  0.21627574     0.09600
N1056       N  0.94449903  0.54650915  0.29745035     0.66000
H1057       H  0.93496582  0.50471516  0.37382118     0.18900
N1058       N  0.88950114  0.89201764  0.31426684     0.76400
H1059       H  0.90031639  0.93249488  0.23821400     0.10400
C1060       C  0.93224204  0.98432843  0.17879645     0.04100
C1061       C  0.92920521  0.00103610  0.13468385    -0.04600
C1062       C  0.91591723  0.53920721  0.12661055    -0.23000
C1063       C  0.90580150  0.56131174  0.16420912     0.13300
C1064       C  0.90946733  0.54521394  0.20853096    -0.12200
N1065       N  0.94477828  0.94391337  0.18463286     0.65000
H1066       H  0.93700881  0.98344118  0.10649090     0.12900
N1067       N  0.89004213  0.59756030  0.15803171     0.61600
H1068       H  0.90090564  0.56141731  0.23679545     0.09000
O1069       O  0.89761182  0.85442567  0.30503375    -0.39800
O1070       O  0.86752984  0.89776052  0.31421672    -0.39000
O1071       O  0.93477973  0.58278384  0.30653262    -0.39000
O1072       O  0.96663258  0.54402561  0.29831288    -0.36700
O1073       O  0.86819431  0.59041146  0.15822675    -0.37600
O1074       O  0.89738747  0.63617893  0.16476560    -0.33800
O1075       O  0.93472245  0.90825162  0.17443696    -0.35200
O1076       O  0.96691314  0.94486421  0.18695121    -0.39500
C1077       C  0.78703536  0.91158201  0.47698825    -0.13200
C1078       C  0.77805654  0.87202586  0.49450912     0.17200
C1079       C  0.79374057  0.83749910  0.50543948     0.03500
C1080       C  0.81785879  0.84327269  0.49952784    -0.11700
C1081       C  0.82697613  0.88297676  0.48271341    -0.02700
C1082       C  0.81123304  0.91730697  0.47069578     0.02800
C1083       C  0.75225746  0.86583878  0.49634532     0.09600
N1084       N  0.78559107  0.79653258  0.52351804     0.66000
H1085       H  0.82954020  0.81662749  0.50919621     0.18900
N1086       N  0.81923296  0.95724815  0.44998516     0.76400
H1087       H  0.77513523  0.93762573  0.46659609     0.10400
C1088       C  0.73738539  0.89536838  0.51958036     0.04100
C1089       C  0.71301418  0.88983130  0.51751634    -0.04600
C1090       C  0.70304085  0.85440997  0.49385514    -0.23000
C1091       C  0.71797035  0.82458209  0.47098934     0.13300
C1092       C  0.74226115  0.83111177  0.47171056    -0.12200
N1093       N  0.74668610  0.92972441  0.54742080     0.65000
H1094       H  0.70190407  0.91244921  0.53603708     0.12900
N1095       N  0.70891965  0.78773844  0.44641477     0.61600
H1096       H  0.75336700  0.80901359  0.45255667     0.09000
O1097       O  0.81796995  0.49274542  0.47207372    -0.39800
O1098       O  0.82142644  0.95887392  0.40718660    -0.39000
O1099       O  0.78600762  0.76282512  0.49850653    -0.39000
O1100       O  0.78448756  0.79165783  0.56621317    -0.36700
O1101       O  0.70687499  0.79039614  0.40361791    -0.37600
O1102       O  0.70928014  0.75021521  0.46508903    -0.33800
O1103       O  0.74443230  0.96920274  0.53450040    -0.35200
O1104       O  0.75083728  0.92175659  0.58895781    -0.39500
loop_ 
_geom_bond_atom_site_label_1 
_geom_bond_atom_site_label_2 
_geom_bond_distance 
_geom_bond_site_symmetry_2 
_ccdc_geom_bond_type 
O1            C4   1.270       .  A
O1           Cd6   2.458       .  S
C2           O11   1.266       .  A
C2            O7   1.271       .  A
C2          C473   1.476       .  S
O3            C9   1.272       .  A
O3           Cd6   2.438       .  S
C4           O12   1.265       .  A
C4          C501   1.482       .  S
C5           O10   1.272       .  A
C5            O8   1.263       .  A
C5          C445   1.482       .  S
Cd6          O13   2.446       .  S
Cd6          O12   2.450       .  S
Cd6          O11   2.437       .  S
Cd6           O7   2.446       .  S
Cd6          O10   2.488       .  S
Cd6           O8   2.436       .  S
C9           O13   1.266       .  A
C9          C529   1.480       .  S
O14          C17   1.272       .  A
O14         Cd19   2.481       .  S
C15          O24   1.265       .  A
C15          O20   1.270       .  A
C15         C389   1.488       .  S
O16          C22   1.272       .  A
O16         Cd19   2.448       .  S
C17          O25   1.265       .  A
C17         C426   1.489       .  S
C18          O23   1.270       .  A
C18          O21   1.265       .  A
C18         C370   1.488       .  S
Cd19         O26   2.427       .  S
Cd19         O25   2.452       .  S
Cd19         O24   2.486       .  S
Cd19         O20   2.481       .  S
Cd19         O23   2.513       .  S
Cd19         O21   2.429       .  S
C22          O26   1.265       .  A
C22         C538   1.476       .  S
O27          C30   1.272       .  A
O27         Cd32   2.445   1_554  S
C28          O37   1.266       .  A
C28          O33   1.272       .  A
C28         C482   1.487       .  S
O29          C35   1.273       .  A
O29         Cd32   2.466       .  S
C30          O38   1.266       .  A
C30         C510   1.482       .  S
C31          O36   1.272       .  A
C31          O34   1.264       .  A
C31         C305   1.483       .  S
Cd32         O39   2.433       .  S
Cd32         O38   2.447   1_556  S
Cd32         O37   2.394       .  S
Cd32         O33   2.505       .  S
Cd32         O36   2.473       .  S
Cd32         O34   2.437       .  S
C35          O39   1.266       .  A
C35         C333   1.480       .  S
O40          C43   1.271       .  A
O40         Cd45   2.467       .  S
C41          O50   1.265       .  A
C41          O46   1.271       .  A
C41         C398   1.491       .  S
O42          C48   1.271   1_556  A
O42         Cd45   2.458   1_556  S
C43          O51   1.264       .  A
C43         C417   1.488       .  S
C44          O49   1.270       .  A
C44          O47   1.264   1_554  A
C44         C277   1.487       .  S
Cd45         O52   2.433       .  S
Cd45         O51   2.464       .  S
Cd45         O50   2.426   1_554  S
Cd45         O46   2.533   1_554  S
Cd45         O49   2.525       .  S
Cd45         O47   2.399   1_554  S
C48          O52   1.266       .  A
C48         C342   1.484   1_554  S
O53          C56   1.271       .  A
O53         Cd58   2.490       .  S
C54          O63   1.265       .  A
C54          O59   1.270       .  A
C54         C193   1.491       .  S
O55          C61   1.271       .  A
O55         Cd58   2.462       .  S
C56          O64   1.264       .  A
C56         C221   1.481       .  S
C57          O62   1.269       .  A
C57          O60   1.264       .  A
C57         C361   1.488       .  S
Cd58         O65   2.441       .  S
Cd58         O64   2.417       .  S
Cd58         O63   2.476       .  S
Cd58         O59   2.485       .  S
Cd58         O62   2.517       .  S
Cd58         O60   2.425       .  S
C61          O65   1.265       .  A
C61         C249   1.479       .  S
O66          C69   1.270       .  A
O66         Cd71   2.483       .  S
C67          O76   1.264       .  A
C67          O72   1.273       .  A
C67         C137   1.471       .  S
O68          C74   1.272       .  A
O68         Cd71   2.471       .  S
C69          O77   1.265       .  A
C69         C165   1.474       .  S
C70          O75   1.274       .  A
C70          O73   1.267       .  A
C70         C454   1.485       .  S
Cd71         O78   2.449       .  S
Cd71         O77   2.425       .  S
Cd71         O76   2.414       .  S
Cd71         O72   2.454       .  S
Cd71         O75   2.473       .  S
Cd71         O73   2.433       .  S
C74          O78   1.263       .  A
C74         C258   1.486       .  S
O79          C82   1.273       .  A
O79         Cd84   2.451       .  S
C80          O89   1.266       .  A
C80          O85   1.271       .  A
C80         C202   1.497       .  S
O81          C87   1.271       .  A
O81         Cd84   2.465       .  S
C82          O90   1.264       .  A
C82         C230   1.479       .  S
C83          O88   1.270       .  A
C83          O86   1.265       .  A
C83         C286   1.486       .  S
Cd84         O91   2.475       .  S
Cd84         O90   2.418       .  S
Cd84         O89   2.421   1_554  S
Cd84         O85   2.549   1_554  S
Cd84         O88   2.517       .  S
Cd84         O86   2.431       .  S
C87          O91   1.265       .  A
C87         C109   1.485       .  S
O92          C95   1.269       .  A
O92         Cd97   2.473   1_554  S
C93         O102   1.264       .  A
C93          O98   1.269       .  A
C93         C146   1.472       .  S
O94         C100   1.270       .  A
O94         Cd97   2.496       .  S
C95         O103   1.265       .  A
C95         C174   1.484       .  S
C96         O101   1.272       .  A
C96          O99   1.265       .  A
C96         C314   1.482       .  S
Cd97        O104   2.487   1_556  S
Cd97        O103   2.454   1_556  S
Cd97        O102   2.447       .  S
Cd97         O98   2.461       .  S
Cd97        O101   2.473       .  S
Cd97         O99   2.439       .  S
C100        O104   1.264   1_556  A
C100        C118   1.494   1_556  S
C105        C106   1.403       .  A
C105        C110   1.404       .  A
C105        H115   1.083       .  S
C106        C111   1.489       .  S
C106        C107   1.412   1_554  A
C107        C108   1.399       .  A
C107        N112   1.428       .  S
C108        C109   1.402   1_556  A
C108        H113   1.083       .  S
C109        C110   1.416       .  A
C110        N114   1.429       .  S
C111        C116   1.411   1_554  A
C111        C120   1.401       .  A
N112        O127   1.262       .  A
N112        O128   1.262       .  A
N114        O125   1.262       .  A
N114        O126   1.262       .  A
C116        C117   1.403       .  A
C116        N121   1.429       .  S
C117        C118   1.406   1_556  A
C117        H122   1.081       .  S
C118        C119   1.418       .  A
C119        C120   1.403       .  A
C119        N123   1.429       .  S
C120        H124   1.081       .  S
N121        O131   1.262   1_556  A
N121        O132   1.262       .  A
N123        O129   1.262       .  A
N123        O130   1.262       .  A
C133        C134   1.399       .  A
C133        C138   1.396       .  A
C133        H143   1.083       .  S
C134        C691   1.477   1_545  S
C134        C135   1.412   1_545  A
C135        C136   1.397       .  A
C135        N692   1.429       .  S
C136        C137   1.400   1_565  A
C136        H141   1.083       .  S
C137        C138   1.414       .  A
C138        N142   1.428       .  S
C139        C686   1.477       .  S
C139        C148   1.398       .  A
C139        C696   1.412       .  A
N140        C687   1.429       .  S
N140        O155   1.262       .  A
N140        O156   1.262       .  A
N142        O153   1.261       .  A
N142        O154   1.262       .  A
C144        C691   1.412   1_545  A
C144        C697   1.398       .  A
C144        N149   1.428       .  S
C145        C146   1.400       .  A
C145        C696   1.398       .  A
C145        H702   1.083       .  S
C146        C147   1.411       .  A
C147        C148   1.395       .  A
C147        N151   1.425       .  S
C148        H152   1.083       .  S
N149        O159   1.262       .  A
N149        O160   1.262       .  A
H150        C697   1.083       .  S
N151        O157   1.261       .  A
N151        O158   1.262       .  A
C161        C162   1.405   1_565  A
C161        C166   1.399   1_565  A
C161        H723   1.082       .  S
C162        C719   1.484       .  S
C162        C163   1.411       .  A
C163        C164   1.402       .  A
C163        N168   1.428       .  S
C164        C165   1.403       .  A
C164        H169   1.082       .  S
C165        C166   1.408       .  A
C166        N722   1.429   1_545  S
C167        C714   1.484       .  S
C167        C172   1.412       .  A
C167        C176   1.402       .  A
N168        O183   1.262       .  A
N168        O184   1.262       .  A
N170        C718   1.429       .  S
N170        O181   1.262       .  A
N170        O734   1.262       .  A
H171        C713   1.082       .  S
C172        C173   1.403       .  A
C172        N729   1.428       .  S
C173        C174   1.405       .  A
C173        H178   1.081       .  S
C174        C175   1.414       .  A
C175        C176   1.399       .  A
C175        N179   1.429       .  S
C176        H180   1.082       .  S
N177        C724   1.428       .  S
N177        O187   1.262       .  A
N177        O188   1.262       .  A
N179        O185   1.262       .  A
N179        O186   1.262       .  A
O182        N722   1.262       .  A
C189        C190   1.401       .  A
C189        C194   1.402       .  A
C189        H199   1.083       .  S
C190        C195   1.490       .  S
C190        C191   1.413       .  A
C191        C192   1.405       .  A
C191        N196   1.429       .  S
C192        C193   1.406       .  A
C192        H197   1.083       .  S
C193        C194   1.416       .  A
C194        N198   1.428       .  S
C195        C200   1.408       .  A
C195        C204   1.406       .  A
N196        O211   1.262       .  A
N196        O212   1.261       .  A
N198        O209   1.262       .  A
N198        O210   1.262       .  A
C200        C201   1.399       .  A
C200        N205   1.429       .  S
C201        C202   1.408       .  A
C201        H206   1.082       .  S
C202        C203   1.417       .  A
C203        C204   1.408       .  A
C203        N207   1.428       .  S
C204        H208   1.083       .  S
N205        O215   1.262       .  A
N205        O216   1.262       .  A
N207        O213   1.262       .  A
N207        O214   1.262       .  A
C217        C218   1.400       .  A
C217        C222   1.393       .  A
C217        H227   1.083       .  S
C218        C223   1.487       .  S
C218        C219   1.417       .  A
C219        C220   1.404       .  A
C219        N224   1.430       .  S
C220        C221   1.403       .  A
C220        H225   1.083       .  S
C221        C222   1.413       .  A
C222        N226   1.429       .  S
C223        C228   1.416       .  A
C223        C232   1.401       .  A
N224        O239   1.262       .  A
N224        O240   1.261       .  A
N226        O237   1.262       .  A
N226        O238   1.262       .  A
C228        C229   1.397       .  A
C228        N233   1.430       .  S
C229        C230   1.401       .  A
C229        H234   1.082       .  S
C230        C231   1.415       .  A
C231        C232   1.397       .  A
C231        N235   1.429       .  S
C232        H236   1.078       .  S
N233        O243   1.262       .  A
N233        O244   1.262       .  A
N235        O241   1.262       .  A
N235        O242   1.262       .  A
C245        C246   1.402       .  A
C245        C250   1.398       .  A
C245        H255   1.079       .  S
C246        C251   1.489       .  S
C246        C247   1.416       .  A
C247        C248   1.400       .  A
C247        N252   1.429       .  S
C248        C249   1.402       .  A
C248        H253   1.081       .  S
C249        C250   1.413       .  A
C250        N254   1.429       .  S
C251        C256   1.415       .  A
C251        C260   1.401       .  A
N252        O268   1.262       .  A
N252        O819   1.262       .  A
N254        O265   1.262       .  A
N254        O266   1.262       .  A
C256        C257   1.399       .  A
C256        N261   1.429       .  S
C257        C258   1.402       .  A
C257        H262   1.083       .  S
C258        C259   1.417       .  A
C259        C260   1.400       .  A
C259        N263   1.429       .  S
C260        H264   1.082       .  S
N261        O271   1.262       .  A
N261        O272   1.262       .  A
N263        O269   1.262       .  A
N263        O270   1.262   1_545  A
O267        N804   1.262       .  A
C273        C826   1.406       .  A
C273        C830   1.406       .  A
C273        H283   1.078       .  S
C274        C831   1.489       .  S
C274        C275   1.409   1_564  A
C274        C825   1.406       .  A
C275        C276   1.395       .  A
C275        N280   1.429       .  S
C276        C277   1.406   1_556  A
C276        H281   1.080       .  S
C277        C278   1.414   1_545  A
C278        C825   1.406       .  A
C278        N834   1.429       .  S
C279        C826   1.489       .  S
C279        C284   1.410   1_554  A
C279        C288   1.405       .  A
N280        O295   1.262       .  A
N280        O296   1.262       .  A
N282        C830   1.429       .  S
N282        O293   1.262       .  A
N282        O846   1.262       .  A
C284        C285   1.400       .  A
C284        N289   1.429       .  S
C285        C286   1.406   1_556  A
C285        H290   1.081       .  S
C286        C287   1.413       .  A
C287        C288   1.404       .  A
C287        N291   1.428       .  S
C288        H844   1.079       .  S
N289        O299   1.262       .  A
N289        O300   1.262       .  A
N291        O297   1.262       .  A
N291        O850   1.262       .  A
H292        C840   1.079   1_545  S
O294        N834   1.262       .  A
O298        N843   1.262   1_545  A
C301        C302   1.400       .  A
C301        C306   1.400   1_455  A
C301        H311   1.082       .  S
C302        C307   1.482       .  S
C302        C303   1.412   1_455  A
C303        C304   1.399       .  A
C303        N308   1.429   1_556  S
C304        C305   1.402       .  A
C304        H309   1.083   1_556  S
C305        C306   1.417       .  A
C306        N310   1.429       .  S
C307        C312   1.413   1_556  A
C307        C316   1.397       .  A
N308        O323   1.262   1_554  A
N308        O324   1.262       .  A
N310        O321   1.262       .  A
N310        O322   1.262       .  A
C312        C313   1.401       .  A
C312        N317   1.428       .  S
C313        C314   1.403   1_554  A
C313        H318   1.083       .  S
C314        C315   1.415       .  A
C315        C316   1.396       .  A
C315        N319   1.425       .  S
C316        H320   1.084       .  S
N317        O327   1.262       .  A
N317        O328   1.261       .  A
N319        O325   1.261       .  A
N319        O326   1.262       .  A
C329        C330   1.401   1_554  A
C329        C334   1.398       .  A
C329        H339   1.079       .  S
C330        C335   1.489       .  S
C330        C331   1.417       .  A
C331        C332   1.400       .  A
C331        N336   1.430       .  S
C332        C333   1.401       .  A
C332        H337   1.082       .  S
C333        C334   1.413   1_556  A
C334        N338   1.429       .  S
C335        C340   1.417       .  A
C335        C344   1.401       .  A
N336        O351   1.262       .  A
N336        O352   1.262       .  A
N338        O350   1.262       .  A
N338        O901   1.262   1_545  A
C340        C341   1.401       .  A
C340        N345   1.430       .  S
C341        C342   1.404       .  A
C341        H346   1.083       .  S
C342        C343   1.415   1_556  A
C343        C344   1.396   1_554  A
C343        N347   1.428       .  S
C344        H348   1.081   1_556  S
N345        O355   1.262   1_546  A
N345        O356   1.262       .  A
N347        O353   1.262   1_554  A
N347        O354   1.262       .  A
O349        N890   1.262       .  A
C357        C910   1.405       .  A
C357        C914   1.405       .  A
C357        H367   1.077       .  S
C358        C915   1.489       .  S
C358        C359   1.410   1_565  A
C358        C909   1.405       .  A
C359        C360   1.399       .  A
C359        N364   1.429       .  S
C360        C361   1.406       .  A
C360        H365   1.078       .  S
C361        C362   1.413       .  A
C362        C909   1.405   1_545  A
C362        N918   1.428   1_545  S
C363        C910   1.489       .  S
C363        C368   1.411       .  A
C363        C372   1.404       .  A
N364        O379   1.262       .  A
N364        O380   1.262       .  A
N366        C914   1.428       .  S
N366        O377   1.262       .  A
N366        O930   1.262       .  A
C368        C369   1.400       .  A
C368        N373   1.430       .  S
C369        C370   1.406       .  A
C369        H374   1.082       .  S
C370        C371   1.413       .  A
C371        C372   1.403       .  A
C371        N375   1.428       .  S
C372        H928   1.081       .  S
N373        O383   1.262       .  A
N373        O384   1.262       .  A
N375        O381   1.262       .  A
N375        O382   1.262       .  A
H376        C924   1.081   1_545  S
O378        N918   1.262       .  A
C385        C386   1.401       .  A
C385        C390   1.402       .  A
C385        H395   1.081       .  S
C386        C391   1.487       .  S
C386        C387   1.411       .  A
C387        C388   1.403       .  A
C387        N392   1.428       .  S
C388        C389   1.405       .  A
C388        H393   1.081       .  S
C389        C390   1.416       .  A
C390        N394   1.428       .  S
C391        C396   1.409       .  A
C391        C400   1.404       .  A
N392        O407   1.262       .  A
N392        O408   1.262       .  A
N394        O405   1.262       .  A
N394        O406   1.262       .  A
C396        C397   1.399       .  A
C396        N401   1.429       .  S
C397        C398   1.406       .  A
C397        H402   1.078       .  S
C398        C399   1.415       .  A
C399        C400   1.409       .  A
C399        N403   1.428       .  S
C400        H404   1.078       .  S
N401        O411   1.262       .  A
N401        O412   1.262       .  A
N403        O409   1.262       .  A
N403        O410   1.262       .  A
C413        C414   1.402       .  A
C413        C418   1.402       .  A
C413        H423   1.082       .  S
C414        C419   1.490       .  S
C414        C415   1.412       .  A
C415        C416   1.400       .  A
C415        N420   1.428       .  S
C416        C417   1.404       .  A
C416        H421   1.082       .  S
C417        C418   1.417       .  A
C418        N422   1.429       .  S
C419        C424   1.413       .  A
C419        C428   1.402       .  A
N420        O435   1.262       .  A
N420        O436   1.262       .  A
N422        O433   1.262       .  A
N422        O434   1.262       .  A
C424        C425   1.402       .  A
C424        N429   1.428       .  S
C425        C426   1.404       .  A
C425        H430   1.081       .  S
C426        C427   1.417       .  A
C427        C428   1.401       .  A
C427        N431   1.429       .  S
C428        H432   1.081       .  S
N429        O439   1.262       .  A
N429        O440   1.262       .  A
N431        O437   1.262       .  A
N431        O438   1.262       .  A
C441        C442   1.400       .  A
C441        C446   1.401   1_455  A
C441        H451   1.083       .  S
C442        C447   1.482       .  S
C442        C443   1.412   1_455  A
C443        C444   1.400       .  A
C443        N448   1.429       .  S
C444        C445   1.402       .  A
C444        H449   1.083       .  S
C445        C446   1.416       .  A
C446        N450   1.429       .  S
C447        C452   1.411       .  A
C447        C456   1.398       .  A
N448        O463   1.262       .  A
N448        O464   1.262       .  A
N450        O461   1.262       .  A
N450        O462   1.262       .  A
C452        C453   1.402       .  A
C452        N457   1.428       .  S
C453        C454   1.404       .  A
C453        H458   1.082       .  S
C454        C455   1.417       .  A
C455        C456   1.398       .  A
C455        N459   1.428       .  S
C456        H460   1.083       .  S
N457        O467   1.262       .  A
N457        O468   1.262       .  A
N459        O465   1.261       .  A
N459        O466   1.261       .  A
C469        C470   1.399       .  A
C469        C474   1.397       .  A
C469        H479   1.083       .  S
C470       C1027   1.473       .  S
C470       C1023   1.407       .  A
C471       C1022   1.407       .  A
C471       C1024   1.400       .  A
C471        N476   1.428   1_565  S
C472        C473   1.404       .  A
C472       C1023   1.400       .  A
C472       H1029   1.082       .  S
C473        C474   1.413       .  A
C474        N478   1.429       .  S
C475       C1022   1.473   1_545  S
C475        C480   1.404       .  A
C475        C484   1.401   1_545  A
N476        O491   1.262       .  A
N476        O492   1.261       .  A
H477       C1024   1.082       .  S
N478        O489   1.262       .  A
N478        O490   1.262       .  A
C480        C481   1.396       .  A
C480        N485   1.429       .  S
C481        C482   1.408       .  A
C481        H486   1.081       .  S
C482        C483   1.415   1_545  A
C483        C484   1.403       .  A
C483        N487   1.428       .  S
C484        H488   1.082       .  S
N485        O495   1.262       .  A
N485        O496   1.262       .  A
N487        O493   1.262       .  A
N487        O494   1.262       .  A
C497        C498   1.400       .  A
C497        C502   1.398       .  A
C497        H507   1.082       .  S
C498       C1055   1.480       .  S
C498       C1051   1.410       .  A
C499       C1050   1.410   1_545  A
C499       C1052   1.400   1_545  A
C499        N504   1.428       .  S
C500        C501   1.404       .  A
C500       C1051   1.400       .  A
C500       H1057   1.082       .  S
C501        C502   1.415       .  A
C502        N506   1.429       .  S
C503       C1050   1.480   1_545  S
C503        C512   1.401       .  A
C503       C1060   1.410   1_545  A
N504        O519   1.262       .  A
N504        O520   1.262       .  A
H505       C1052   1.082   1_545  S
N506        O517   1.262       .  A
N506        O518   1.262       .  A
C508        C509   1.397       .  A
C508       C1055   1.410       .  A
C508        N513   1.428       .  S
C509       C1062   1.402       .  A
C509        H514   1.083       .  S
C510        C511   1.417       .  A
C510       C1061   1.402       .  A
C511        C512   1.401       .  A
C511        N515   1.429       .  S
C512        H516   1.083       .  S
N513        O523   1.262       .  A
N513        O524   1.262       .  A
N515        O521   1.262       .  A
N515        O522   1.262       .  A
C525        C526   1.402       .  A
C525        C530   1.401       .  A
C525        H535   1.082       .  S
C526        C531   1.481       .  S
C526        C527   1.411       .  A
C527        C528   1.395       .  A
C527        N532   1.429       .  S
C528        C529   1.401       .  A
C528        H533   1.083       .  S
C529        C530   1.416       .  A
C530        N534   1.430       .  S
C531        C536   1.411       .  A
C531        C540   1.401       .  A
N532        O547   1.262       .  A
N532        O548   1.262       .  A
N534        O546   1.262       .  A
N534       O1097   1.262       .  A
C536        C537   1.398       .  A
C536        N541   1.429       .  S
C537        C538   1.402       .  A
C537        H542   1.082       .  S
C538        C539   1.414       .  A
C539        C540   1.397       .  A
C539        N543   1.429       .  S
C540        H544   1.082       .  S
N541        O551   1.262       .  A
N541        O552   1.262       .  A
N543        O549   1.262       .  A
N543        O550   1.262       .  A
O545       N1086   1.262       .  A
O553        C556   1.270       .  A
O553       Cd558   2.458       .  S
C554        O563   1.266       .  A
C554        O559   1.271       .  A
C554       C1025   1.476       .  S
O555        C561   1.272       .  A
O555       Cd558   2.438       .  S
C556        O564   1.265       .  A
C556       C1053   1.482       .  S
C557        O562   1.272       .  A
C557        O560   1.263       .  A
C557        C997   1.482       .  S
Cd558       O565   2.446       .  S
Cd558       O564   2.450       .  S
Cd558       O563   2.438       .  S
Cd558       O559   2.446       .  S
Cd558       O562   2.488       .  S
Cd558       O560   2.436       .  S
C561        O565   1.266       .  A
C561       C1081   1.480       .  S
O566        C569   1.272       .  A
O566       Cd571   2.481       .  S
C567        O576   1.265       .  A
C567        O572   1.270       .  A
C567        C941   1.488       .  S
O568        C574   1.272       .  A
O568       Cd571   2.447       .  S
C569        O577   1.265       .  A
C569        C978   1.489       .  S
C570        O575   1.270       .  A
C570        O573   1.265       .  A
C570        C922   1.488       .  S
Cd571       O578   2.427       .  S
Cd571       O577   2.452       .  S
Cd571       O576   2.486       .  S
Cd571       O572   2.481       .  S
Cd571       O575   2.513       .  S
Cd571       O573   2.429       .  S
C574        O578   1.265       .  A
C574       C1090   1.476       .  S
O579        C582   1.272       .  A
O579       Cd584   2.445   1_554  S
C580        O589   1.266       .  A
C580        O585   1.272       .  A
C580       C1034   1.487       .  S
O581        C587   1.273       .  A
O581       Cd584   2.466       .  S
C582        O590   1.266       .  A
C582       C1062   1.482       .  S
C583        O588   1.272       .  A
C583        O586   1.264       .  A
C583        C857   1.483       .  S
Cd584       O591   2.433       .  S
Cd584       O590   2.447   1_556  S
Cd584       O589   2.394       .  S
Cd584       O585   2.505       .  S
Cd584       O588   2.473       .  S
Cd584       O586   2.437       .  S
C587        O591   1.266       .  A
C587        C885   1.480       .  S
O592        C595   1.271       .  A
O592       Cd597   2.467       .  S
C593        O602   1.265       .  A
C593        O598   1.271       .  A
C593        C950   1.491       .  S
O594        C600   1.271   1_556  A
O594       Cd597   2.458   1_556  S
C595        O603   1.264       .  A
C595        C969   1.488       .  S
C596        O601   1.270       .  A
C596        O599   1.264   1_554  A
C596        C829   1.487       .  S
Cd597       O604   2.433       .  S
Cd597       O603   2.464       .  S
Cd597       O602   2.426   1_554  S
Cd597       O598   2.533   1_554  S
Cd597       O601   2.525       .  S
Cd597       O599   2.399   1_554  S
C600        O604   1.266       .  A
C600        C894   1.484   1_554  S
O605        C608   1.271       .  A
O605       Cd610   2.490       .  S
C606        O615   1.265       .  A
C606        O611   1.270       .  A
C606        C745   1.491       .  S
O607        C613   1.271       .  A
O607       Cd610   2.462       .  S
C608        O616   1.264       .  A
C608        C773   1.481       .  S
C609        O614   1.269       .  A
C609        O612   1.264       .  A
C609        C913   1.488       .  S
Cd610       O617   2.441       .  S
Cd610       O616   2.417       .  S
Cd610       O615   2.476       .  S
Cd610       O611   2.485       .  S
Cd610       O614   2.517       .  S
Cd610       O612   2.425       .  S
C613        O617   1.265       .  A
C613        C801   1.479       .  S
O618        C621   1.270       .  A
O618       Cd623   2.483       .  S
C619        O628   1.264       .  A
C619        O624   1.273       .  A
C619        C689   1.471       .  S
O620        C626   1.272       .  A
O620       Cd623   2.471       .  S
C621        O629   1.265       .  A
C621        C717   1.474       .  S
C622        O627   1.274       .  A
C622        O625   1.267       .  A
C622       C1006   1.485       .  S
Cd623       O630   2.449       .  S
Cd623       O629   2.425       .  S
Cd623       O628   2.414       .  S
Cd623       O624   2.454       .  S
Cd623       O627   2.473       .  S
Cd623       O625   2.433       .  S
C626        O630   1.263       .  A
C626        C810   1.486       .  S
O631        C634   1.273       .  A
O631       Cd636   2.451       .  S
C632        O641   1.266       .  A
C632        O637   1.271       .  A
C632        C754   1.497       .  S
O633        C639   1.271       .  A
O633       Cd636   2.465       .  S
C634        O642   1.264       .  A
C634        C782   1.479       .  S
C635        O640   1.270       .  A
C635        O638   1.265       .  A
C635        C838   1.486       .  S
Cd636       O643   2.475       .  S
Cd636       O642   2.418       .  S
Cd636       O641   2.421   1_554  S
Cd636       O637   2.549   1_554  S
Cd636       O640   2.517       .  S
Cd636       O638   2.431       .  S
C639        O643   1.265       .  A
C639        C661   1.485       .  S
O644        C647   1.269       .  A
O644       Cd649   2.473   1_554  S
C645        O654   1.264       .  A
C645        O650   1.269       .  A
C645        C698   1.472       .  S
O646        C652   1.270       .  A
O646       Cd649   2.496       .  S
C647        O655   1.265       .  A
C647        C726   1.484       .  S
C648        O653   1.272       .  A
C648        O651   1.265       .  A
C648        C866   1.482       .  S
Cd649       O656   2.487   1_556  S
Cd649       O655   2.454   1_556  S
Cd649       O654   2.447       .  S
Cd649       O650   2.461       .  S
Cd649       O653   2.473       .  S
Cd649       O651   2.439       .  S
C652        O656   1.264   1_556  A
C652        C670   1.494   1_556  S
C657        C658   1.403       .  A
C657        C662   1.404       .  A
C657        H667   1.083       .  S
C658        C663   1.489       .  S
C658        C659   1.412   1_554  A
C659        C660   1.399       .  A
C659        N664   1.428       .  S
C660        C661   1.402   1_556  A
C660        H665   1.083       .  S
C661        C662   1.416       .  A
C662        N666   1.429       .  S
C663        C668   1.411   1_554  A
C663        C672   1.401       .  A
N664        O679   1.262       .  A
N664        O680   1.262       .  A
N666        O677   1.262       .  A
N666        O678   1.262       .  A
C668        C669   1.403       .  A
C668        N673   1.429       .  S
C669        C670   1.406   1_556  A
C669        H674   1.081       .  S
C670        C671   1.418       .  A
C671        C672   1.403       .  A
C671        N675   1.429       .  S
C672        H676   1.081       .  S
N673        O683   1.262   1_556  A
N673        O684   1.262       .  A
N675        O681   1.262       .  A
N675        O682   1.262       .  A
C685        C686   1.399       .  A
C685        C690   1.396       .  A
C685        H695   1.083       .  S
C686        C687   1.412       .  A
C687        C688   1.397       .  A
C688        C689   1.400       .  A
C688        H693   1.083       .  S
C689        C690   1.414       .  A
C690        N694   1.428       .  S
C691        C700   1.398       .  A
N692        O707   1.262       .  A
N692        O708   1.262       .  A
N694        O705   1.261       .  A
N694        O706   1.262       .  A
C696        N701   1.428       .  S
C697        C698   1.400   1_545  A
C698        C699   1.411       .  A
C699        C700   1.395       .  A
C699        N703   1.425       .  S
C700        H704   1.083       .  S
N701        O711   1.262       .  A
N701        O712   1.262       .  A
N703        O709   1.261       .  A
N703        O710   1.262       .  A
C713        C714   1.405       .  A
C713        C718   1.399       .  A
C714        C715   1.411       .  A
C715        C716   1.402       .  A
C715        N720   1.428       .  S
C716        C717   1.403       .  A
C716        H721   1.082       .  S
C717        C718   1.408       .  A
C719        C724   1.412       .  A
C719        C728   1.402   1_545  A
N720        O735   1.262       .  A
N720        O736   1.262       .  A
N722        O733   1.262       .  A
C724        C725   1.403       .  A
C725        C726   1.405   1_545  A
C725        H730   1.081       .  S
C726        C727   1.414       .  A
C727        C728   1.399       .  A
C727        N731   1.429       .  S
C728        H732   1.082       .  S
N729        O739   1.262       .  A
N729        O740   1.262       .  A
N731        O737   1.262       .  A
N731        O738   1.262       .  A
C741        C742   1.401       .  A
C741        C746   1.402       .  A
C741        H751   1.083       .  S
C742        C747   1.490       .  S
C742        C743   1.413       .  A
C743        C744   1.405       .  A
C743        N748   1.429       .  S
C744        C745   1.406       .  A
C744        H749   1.083       .  S
C745        C746   1.416       .  A
C746        N750   1.428       .  S
C747        C752   1.408       .  A
C747        C756   1.406       .  A
N748        O763   1.262       .  A
N748        O764   1.261       .  A
N750        O761   1.262       .  A
N750        O762   1.262       .  A
C752        C753   1.399       .  A
C752        N757   1.429       .  S
C753        C754   1.408       .  A
C753        H758   1.082       .  S
C754        C755   1.417       .  A
C755        C756   1.408       .  A
C755        N759   1.428       .  S
C756        H760   1.083       .  S
N757        O767   1.262       .  A
N757        O768   1.262       .  A
N759        O765   1.262       .  A
N759        O766   1.262       .  A
C769        C770   1.400       .  A
C769        C774   1.393       .  A
C769        H779   1.083       .  S
C770        C775   1.487       .  S
C770        C771   1.417       .  A
C771        C772   1.404       .  A
C771        N776   1.430       .  S
C772        C773   1.403       .  A
C772        H777   1.083       .  S
C773        C774   1.413       .  A
C774        N778   1.429       .  S
C775        C780   1.416       .  A
C775        C784   1.401       .  A
N776        O791   1.262       .  A
N776        O792   1.261       .  A
N778        O789   1.262       .  A
N778        O790   1.262       .  A
C780        C781   1.397       .  A
C780        N785   1.430       .  S
C781        C782   1.401       .  A
C781        H786   1.082       .  S
C782        C783   1.415       .  A
C783        C784   1.397       .  A
C783        N787   1.429       .  S
C784        H788   1.078       .  S
N785        O795   1.262       .  A
N785        O796   1.262       .  A
N787        O793   1.262       .  A
N787        O794   1.262       .  A
C797        C798   1.402       .  A
C797        C802   1.398       .  A
C797        H807   1.079       .  S
C798        C803   1.489       .  S
C798        C799   1.416       .  A
C799        C800   1.400       .  A
C799        N804   1.429       .  S
C800        C801   1.402       .  A
C800        H805   1.081       .  S
C801        C802   1.413       .  A
C802        N806   1.429       .  S
C803        C808   1.415       .  A
C803        C812   1.401       .  A
N804        O820   1.262       .  A
N806        O817   1.262       .  A
N806        O818   1.262       .  A
C808        C809   1.399       .  A
C808        N813   1.429       .  S
C809        C810   1.402       .  A
C809        H814   1.083       .  S
C810        C811   1.417       .  A
C811        C812   1.400       .  A
C811        N815   1.429       .  S
C812        H816   1.082       .  S
N813        O823   1.262       .  A
N813        O824   1.262       .  A
N815        O821   1.262       .  A
N815        O822   1.262       .  A
C825        H835   1.078       .  S
C826        C827   1.409   1_554  A
C827        C828   1.395       .  A
C827        N832   1.429       .  S
C828        C829   1.406   1_556  A
C828        H833   1.080       .  S
C829        C830   1.414       .  A
C831        C836   1.410   1_554  A
C831        C840   1.405       .  A
N832        O847   1.262       .  A
N832        O848   1.262       .  A
N834        O845   1.262       .  A
C836        C837   1.400       .  A
C836        N841   1.429       .  S
C837        C838   1.406   1_556  A
C837        H842   1.081       .  S
C838        C839   1.413       .  A
C839        C840   1.404       .  A
C839        N843   1.428       .  S
N841        O851   1.262       .  A
N841        O852   1.262       .  A
N843        O849   1.262       .  A
C853        C854   1.400       .  A
C853        C858   1.400   1_455  A
C853        H863   1.082       .  S
C854        C859   1.482       .  S
C854        C855   1.412   1_455  A
C855        C856   1.399       .  A
C855        N860   1.429   1_556  S
C856        C857   1.402       .  A
C856        H861   1.083   1_556  S
C857        C858   1.417       .  A
C858        N862   1.429       .  S
C859        C864   1.413   1_556  A
C859        C868   1.397       .  A
N860        O875   1.262   1_554  A
N860        O876   1.262       .  A
N862        O873   1.262       .  A
N862        O874   1.262       .  A
C864        C865   1.401       .  A
C864        N869   1.428       .  S
C865        C866   1.403   1_554  A
C865        H870   1.083       .  S
C866        C867   1.415       .  A
C867        C868   1.396       .  A
C867        N871   1.425       .  S
C868        H872   1.084       .  S
N869        O879   1.262       .  A
N869        O880   1.261       .  A
N871        O877   1.261       .  A
N871        O878   1.262       .  A
C881        C882   1.401   1_554  A
C881        C886   1.398       .  A
C881        H891   1.079       .  S
C882        C887   1.489       .  S
C882        C883   1.417       .  A
C883        C884   1.400       .  A
C883        N888   1.430       .  S
C884        C885   1.401       .  A
C884        H889   1.082       .  S
C885        C886   1.413   1_556  A
C886        N890   1.429       .  S
C887        C892   1.417       .  A
C887        C896   1.401       .  A
N888        O903   1.262       .  A
N888        O904   1.262       .  A
N890        O902   1.262       .  A
C892        C893   1.401       .  A
C892        N897   1.430       .  S
C893        C894   1.404       .  A
C893        H898   1.083       .  S
C894        C895   1.415   1_556  A
C895        C896   1.396   1_554  A
C895        N899   1.428       .  S
C896        H900   1.081   1_556  S
N897        O907   1.262   1_556  A
N897        O908   1.262       .  A
N899        O905   1.262   1_554  A
N899        O906   1.262       .  A
C909        H919   1.077       .  S
C910        C911   1.410       .  A
C911        C912   1.399       .  A
C911        N916   1.429       .  S
C912        C913   1.406       .  A
C912        H917   1.078       .  S
C913        C914   1.413       .  A
C915        C920   1.411       .  A
C915        C924   1.404       .  A
N916        O931   1.262       .  A
N916        O932   1.262       .  A
N918        O929   1.262       .  A
C920        C921   1.400       .  A
C920        N925   1.430       .  S
C921        C922   1.406       .  A
C921        H926   1.082       .  S
C922        C923   1.413       .  A
C923        C924   1.403       .  A
C923        N927   1.428       .  S
N925        O935   1.262       .  A
N925        O936   1.262       .  A
N927        O933   1.262   1_565  A
N927        O934   1.262       .  A
C937        C938   1.401       .  A
C937        C942   1.402       .  A
C937        H947   1.081       .  S
C938        C943   1.487       .  S
C938        C939   1.411       .  A
C939        C940   1.403       .  A
C939        N944   1.428       .  S
C940        C941   1.405       .  A
C940        H945   1.081       .  S
C941        C942   1.416       .  A
C942        N946   1.428       .  S
C943        C948   1.409       .  A
C943        C952   1.404       .  A
N944        O959   1.262       .  A
N944        O960   1.262       .  A
N946        O957   1.262       .  A
N946        O958   1.262       .  A
C948        C949   1.399       .  A
C948        N953   1.429       .  S
C949        C950   1.406       .  A
C949        H954   1.078       .  S
C950        C951   1.415       .  A
C951        C952   1.409       .  A
C951        N955   1.428       .  S
C952        H956   1.078       .  S
N953        O963   1.262       .  A
N953        O964   1.262       .  A
N955        O961   1.262       .  A
N955        O962   1.262       .  A
C965        C966   1.402       .  A
C965        C970   1.402       .  A
C965        H975   1.082       .  S
C966        C971   1.490       .  S
C966        C967   1.412       .  A
C967        C968   1.400       .  A
C967        N972   1.428       .  S
C968        C969   1.404       .  A
C968        H973   1.082       .  S
C969        C970   1.417       .  A
C970        N974   1.429       .  S
C971        C976   1.413       .  A
C971        C980   1.402       .  A
N972        O987   1.262       .  A
N972        O988   1.262       .  A
N974        O985   1.262       .  A
N974        O986   1.262       .  A
C976        C977   1.402       .  A
C976        N981   1.428       .  S
C977        C978   1.404       .  A
C977        H982   1.081       .  S
C978        C979   1.417       .  A
C979        C980   1.401       .  A
C979        N983   1.429       .  S
C980        H984   1.081       .  S
N981        O991   1.262       .  A
N981        O992   1.262       .  A
N983        O989   1.262       .  A
N983        O990   1.262       .  A
C993        C994   1.400       .  A
C993        C998   1.401   1_455  A
C993       H1003   1.083       .  S
C994        C999   1.482       .  S
C994        C995   1.412   1_455  A
C995        C996   1.400       .  A
C995       N1000   1.429       .  S
C996        C997   1.402       .  A
C996       H1001   1.083       .  S
C997        C998   1.416       .  A
C998       N1002   1.429       .  S
C999       C1004   1.411       .  A
C999       C1008   1.398       .  A
N1000      O1015   1.262       .  A
N1000      O1016   1.262       .  A
N1002      O1013   1.262       .  A
N1002      O1014   1.262       .  A
C1004      C1005   1.402       .  A
C1004      N1009   1.428       .  S
C1005      C1006   1.404       .  A
C1005      H1010   1.082       .  S
C1006      C1007   1.417       .  A
C1007      C1008   1.398       .  A
C1007      N1011   1.428       .  S
C1008      H1012   1.083       .  S
N1009      O1019   1.262       .  A
N1009      O1020   1.262       .  A
N1011      O1017   1.261       .  A
N1011      O1018   1.261       .  A
C1021      C1022   1.399       .  A
C1021      C1026   1.397       .  A
C1021      H1031   1.083       .  S
C1023      N1028   1.428       .  S
C1024      C1025   1.404       .  A
C1025      C1026   1.413       .  A
C1026      N1030   1.429       .  S
C1027      C1032   1.404       .  A
C1027      C1036   1.401       .  A
N1028      O1043   1.262       .  A
N1028      O1044   1.261       .  A
N1030      O1041   1.262       .  A
N1030      O1042   1.262       .  A
C1032      C1033   1.396       .  A
C1032      N1037   1.429       .  S
C1033      C1034   1.408       .  A
C1033      H1038   1.081       .  S
C1034      C1035   1.415       .  A
C1035      C1036   1.403       .  A
C1035      N1039   1.428       .  S
C1036      H1040   1.082       .  S
N1037      O1047   1.262       .  A
N1037      O1048   1.262       .  A
N1039      O1045   1.262       .  A
N1039      O1046   1.262       .  A
C1049      C1050   1.400       .  A
C1049      C1054   1.398       .  A
C1049      H1059   1.082       .  S
C1051      N1056   1.428       .  S
C1052      C1053   1.404       .  A
C1053      C1054   1.415       .  A
C1054      N1058   1.429       .  S
C1055      C1064   1.401       .  A
N1056      O1071   1.262       .  A
N1056      O1072   1.262       .  A
N1058      O1069   1.262       .  A
N1058      O1070   1.262       .  A
C1060      C1061   1.397   1_565  A
C1060      N1065   1.428       .  S
C1061      H1066   1.083   1_545  S
C1062      C1063   1.417       .  A
C1063      C1064   1.401       .  A
C1063      N1067   1.429       .  S
C1064      H1068   1.083       .  S
N1065      O1075   1.262       .  A
N1065      O1076   1.262       .  A
N1067      O1073   1.262       .  A
N1067      O1074   1.262       .  A
C1077      C1078   1.402       .  A
C1077      C1082   1.401       .  A
C1077      H1087   1.082       .  S
C1078      C1083   1.481       .  S
C1078      C1079   1.411       .  A
C1079      C1080   1.395       .  A
C1079      N1084   1.429       .  S
C1080      C1081   1.401       .  A
C1080      H1085   1.083       .  S
C1081      C1082   1.416       .  A
C1082      N1086   1.430       .  S
C1083      C1088   1.411       .  A
C1083      C1092   1.401       .  A
N1084      O1099   1.262       .  A
N1084      O1100   1.262       .  A
N1086      O1098   1.262       .  A
C1088      C1089   1.398       .  A
C1088      N1093   1.429       .  S
C1089      C1090   1.402       .  A
C1089      H1094   1.082       .  S
C1090      C1091   1.414       .  A
C1091      C1092   1.397       .  A
C1091      N1095   1.429       .  S
C1092      H1096   1.082       .  S
N1093      O1103   1.262       .  A
N1093      O1104   1.262       .  A
N1095      O1101   1.262       .  A
N1095      O1102   1.262       .  A
