geometry optimzed in LAMMPS
_audit_creation_date              2020-11-30 
_audit_creation_method            'lammps2cif' 
_symmetry_space_group_name_H-M    'P1' 
_symmetry_Int_Tables_number       1 
_symmetry_cell_setting            triclinic 
loop_ 
_symmetry_equiv_pos_as_xyz 
  x,y,z 
_cell_length_a                    36.03574813 
_cell_length_b                    36.09797857868004 
_cell_length_c                    36.05574225320402 
_cell_angle_alpha                 89.93145625988706 
_cell_angle_beta                  90.31561203472755 
_cell_angle_gamma                 89.86586028007062 
loop_ 
_atom_site_label 
_atom_site_type_symbol 
_atom_site_fract_x 
_atom_site_fract_y 
_atom_site_fract_z 
_atom_site_charge 
C1          C  0.55295547  0.26185750  0.10461968     0.04000
C2          C  0.52593407  0.26402446  0.13258057    -0.12200
C3          C  0.48824321  0.26897605  0.12327370     0.01500
C4          C  0.47777513  0.27089585  0.08574711    -0.10700
C5          C  0.50443442  0.26791864  0.05784305     0.04000
C6          C  0.54189975  0.26358052  0.06731397    -0.10100
H7          H  0.53438968  0.26298898  0.16145301     0.09600
H8          H  0.44881368  0.27422109  0.07814969     0.07100
H9          H  0.56254677  0.26219730  0.04559814     0.06900
C10         C  0.41834084  0.19751858  0.29929149     0.04000
C11         C  0.41960896  0.16017959  0.28831736    -0.12200
C12         C  0.42341707  0.15058587  0.25075616     0.01500
C13         C  0.42655276  0.17884173  0.22419322    -0.10700
C14         C  0.42532136  0.21630168  0.23477605     0.04000
C15         C  0.42079666  0.22545907  0.27236846    -0.10100
H16         H  0.41784084  0.13854080  0.30909864     0.09600
H17         H  0.42922363  0.17162996  0.19515227     0.07100
H18         H  0.42034158  0.25424954  0.28082242     0.06900
C19         C  0.35483619  0.39439339  0.16914255     0.04000
C20         C  0.38307640  0.36759972  0.17066378    -0.12200
C21         C  0.37409627  0.32981468  0.17363824     0.01500
C22         C  0.33657698  0.31918215  0.17425874    -0.10700
C23         C  0.30831988  0.34589785  0.17226700     0.04000
C24         C  0.31765160  0.38343888  0.16992464    -0.10100
H25         H  0.41185749  0.37623337  0.17056612     0.09600
H26         H  0.32930764  0.29011525  0.17600388     0.07100
H27         H  0.29590454  0.40423420  0.16904612     0.06900
C28         C  0.42853118  0.24580711  0.20643979     0.04000
C29         C  0.45737930  0.24490099  0.18040428    -0.12200
C30         C  0.45951482  0.27184658  0.15239435     0.01500
C31         C  0.43268255  0.30018894  0.15087474    -0.10700
C32         C  0.40362970  0.30133114  0.17665090     0.04000
C33         C  0.40189805  0.27416508  0.20449026    -0.10100
H34         H  0.47769473  0.22273580  0.18145986     0.09600
H35         H  0.43389282  0.32083889  0.12906983     0.07100
H36         H  0.37936394  0.27470461  0.22429824     0.06900
Zn37       Zn  0.92929796  0.72299039  0.60355408     1.49700
Zn38       Zn  0.86092733  0.77703782  0.61805236     1.49400
Zn39       Zn  0.87635206  0.70853252  0.67313026     1.49100
Zn40       Zn  0.93144536  0.77764152  0.67357458     1.49500
O41         O  0.89943556  0.74664170  0.64213072    -1.83300
O42         O  0.91399721  0.73907620  0.55180970    -0.73900
O43         O  0.80929437  0.76028268  0.63276206    -0.73700
O44         O  0.89116233  0.65711963  0.65655012    -0.73300
O45         O  0.86326033  0.77257235  0.56223883    -0.73900
O46         O  0.92361802  0.66771931  0.60531997    -0.73500
O47         O  0.82068343  0.71107794  0.66831173    -0.74100
O48         O  0.92911219  0.76178931  0.72743147    -0.73500
O49         O  0.86797960  0.83122463  0.63083228    -0.74300
O50         O  0.89017359  0.71452837  0.72742111    -0.73700
O51         O  0.91559086  0.83161576  0.66992778    -0.74100
O52         O  0.98553558  0.77272310  0.65876478    -0.74000
O53         O  0.98348022  0.73350465  0.61141778    -0.73800
C54         C  0.88610896  0.75747123  0.54007342     0.78000
C55         C  0.79806328  0.73279894  0.65185963     0.78500
C56         C  0.90869361  0.64557053  0.62824536     0.77400
C57         C  0.91174037  0.73651576  0.74481595     0.77800
C58         C  0.89044853  0.84888270  0.65173738     0.78900
C59         C  0.00182092  0.75351555  0.63402931     0.78000
C60         C  0.40734983  0.82457450  0.79624521     0.04000
C61         C  0.40911208  0.86161545  0.78477029    -0.12200
C62         C  0.40891944  0.87066778  0.74702710     0.01500
C63         C  0.40683295  0.84238281  0.72047657    -0.10700
C64         C  0.40582956  0.80507024  0.73161359     0.04000
C65         C  0.40633825  0.79623888  0.76959231    -0.10100
H66         H  0.41006550  0.88357420  0.80537239     0.09600
H67         H  0.40654997  0.84940690  0.69133503     0.07100
H68         H  0.40483426  0.76764937  0.77838949     0.06900
C69         C  0.47652112  0.62610841  0.66837628     0.04000
C70         C  0.44921748  0.65389721  0.66937873    -0.12200
C71         C  0.45923469  0.69133443  0.67290591     0.01500
C72         C  0.49704078  0.70088358  0.67428663    -0.10700
C73         C  0.52445465  0.67330439  0.67226822     0.04000
C74         C  0.51409274  0.63606366  0.66998975    -0.10100
H75         H  0.42016345  0.64629623  0.66789896     0.09600
H76         H  0.50515700  0.72970619  0.67590683     0.07100
H77         H  0.53536488  0.61480850  0.66886491     0.06900
C78         C  0.28045313  0.75390889  0.60069799     0.04000
C79         C  0.29107853  0.75581005  0.56345557    -0.12200
C80         C  0.32867208  0.75506447  0.55389999     0.01500
C81         C  0.35578675  0.75241101  0.58175690    -0.10700
C82         C  0.34552111  0.75099355  0.61924037     0.04000
C83         C  0.30767296  0.75180585  0.62862289    -0.10100
H84         H  0.27009336  0.75724252  0.54186549     0.09600
H85         H  0.38492791  0.75161176  0.57419818     0.07100
H86         H  0.29943974  0.75039835  0.65739401     0.06900
C87         C  0.37438195  0.74911475  0.64848607     0.04000
C88         C  0.40177702  0.72139017  0.64756910    -0.12200
C89         C  0.43020149  0.72042823  0.67439736     0.01500
C90         C  0.43101420  0.74754841  0.70231433    -0.10700
C91         C  0.40385707  0.77549482  0.70336465     0.04000
C92         C  0.37553413  0.77596565  0.67651299    -0.10100
H93         H  0.40116833  0.70081705  0.62571724     0.09600
H94         H  0.45297185  0.74717048  0.72298726     0.07100
H95         H  0.35464959  0.79774136  0.67705910     0.06900
Zn96       Zn  0.46243435  0.27269651  0.64405092     1.49700
Zn97       Zn  0.40564041  0.28339398  0.71254126     1.49400
Zn98       Zn  0.39567777  0.21561572  0.65536841     1.49100
Zn99       Zn  0.46372128  0.21679939  0.71296595     1.47100
O100        O  0.43177811  0.24725979  0.68117868    -1.83300
O101        O  0.45891742  0.32837605  0.65087217    -0.73900
O102        O  0.34996067  0.27565177  0.71014159    -0.73700
O103        O  0.39986864  0.22055515  0.59963177    -0.73300
O104        O  0.41663982  0.33552302  0.69522633    -0.73900
O105        O  0.44604895  0.25979254  0.59168070    -0.73500
O106        O  0.34334780  0.23038157  0.66872574    -0.74100
O107        O  0.44772086  0.16337901  0.71193472    -0.73500
O108        O  0.42251081  0.28035854  0.76643132    -0.74300
O109        O  0.40279028  0.16148310  0.66942846    -0.73700
O110        O  0.46342524  0.23435215  0.76607824    -0.74100
O111        O  0.51660748  0.21849873  0.69576558    -0.74000
O112        O  0.51642799  0.25735350  0.64813199    -0.73800
C113        C  0.43907272  0.34897011  0.67159408     0.78000
C114        C  0.32957698  0.25417910  0.69080915     0.78500
C115        C  0.42104307  0.23877268  0.57815055     0.77400
C116        C  0.42390565  0.14540010  0.69297763     0.77800
C117        C  0.44595405  0.25973705  0.78323454     0.78900
C118        C  0.53361576  0.23536299  0.66993730     0.78000
C119        C  0.05104051  0.26305320  0.71737186     0.04000
C120        C  0.02356849  0.26043466  0.68967963    -0.12200
C121        C  0.98597801  0.25660893  0.69935402     0.01500
C122        C  0.97610266  0.25607390  0.73710704    -0.10700
C123        C  0.00339625  0.25927105  0.76485084     0.04000
C124        C  0.04067733  0.26245520  0.75474704    -0.10100
H125        H  0.03152101  0.26074700  0.66074068     0.09600
H126        H  0.94723162  0.25346993  0.74492500     0.07100
H127        H  0.06181965  0.26443838  0.77617269     0.06900
C128        C  0.91035053  0.32565927  0.52183044     0.04000
C129        C  0.91244755  0.36280571  0.53283647    -0.12200
C130        C  0.91878928  0.37207410  0.57001725     0.01500
C131        C  0.92347017  0.34389142  0.59644810    -0.10700
C132        C  0.92105779  0.30641565  0.58615494     0.04000
C133        C  0.91404326  0.29749800  0.54871793    -0.10100
H134        H  0.90963220  0.38461979  0.51230705     0.09600
H135        H  0.92823548  0.35127360  0.62519883     0.07100
H136        H  0.91269064  0.26874291  0.54024411     0.06900
C137        C  0.85489578  0.12811542  0.65823583     0.04000
C138        C  0.88271514  0.15516849  0.65454695    -0.12200
C139        C  0.87322978  0.19273622  0.64983996     0.01500
C140        C  0.83570216  0.20314044  0.64976632    -0.10700
C141        C  0.80784209  0.17659471  0.65437003     0.04000
C142        C  0.81748869  0.13912003  0.65822202    -0.10100
H143        H  0.91163511  0.14686389  0.65457165     0.09600
H144        H  0.82808874  0.23207084  0.64676923     0.07100
H145        H  0.79585541  0.11851504  0.66105854     0.06900
C146        C  0.95697496  0.25297930  0.67020296     0.04000
C147        C  0.95431368  0.27905802  0.64130293    -0.12200
C148        C  0.92554726  0.27696643  0.61478228     0.01500
C149        C  0.89977693  0.24790143  0.61713313    -0.10700
C150        C  0.90221640  0.22149910  0.64579289     0.04000
C151        C  0.93092967  0.22417080  0.67209101    -0.10100
H152        H  0.97418212  0.30150549  0.63997130     0.09600
H153        H  0.87718251  0.24637031  0.59724471     0.07100
H154        H  0.93253242  0.20425110  0.69456833     0.06900
Zn155      Zn  0.90857776  0.24541355  0.10879478     1.49700
Zn156      Zn  0.96799037  0.31025852  0.11438140     1.49400
Zn157      Zn  0.89819045  0.31160942  0.16697301     1.49100
Zn158      Zn  0.96232028  0.25110894  0.18033947     1.49500
O159        O  0.93420467  0.27923538  0.14273876    -1.83300
O160        O  0.92676881  0.25180641  0.05601333    -0.73900
O161        O  0.95262423  0.36332738  0.11440165    -0.73700
O162        O  0.84618743  0.29584033  0.15503822    -0.73300
O163        O  0.96981693  0.29503454  0.06095847    -0.73900
O164        O  0.85233618  0.25318601  0.11090354    -0.73500
O165        O  0.90277792  0.36463596  0.14989817    -0.74100
O166        O  0.94401664  0.26352169  0.23184355    -0.73500
O167        O  0.01915179  0.30875209  0.13572725    -0.74300
O168        O  0.90428381  0.30996022  0.22250629    -0.73700
O169        O  0.01703628  0.26537630  0.17956356    -0.74100
O170        O  0.95695418  0.19559301  0.17221830    -0.74000
O171        O  0.92020909  0.19240027  0.12288193    -0.73800
C172        C  0.95163704  0.27206093  0.04131564     0.78000
C173        C  0.92605460  0.38101644  0.12917407     0.78500
C174        C  0.83213501  0.27341469  0.13172022     0.77400
C175        C  0.92230472  0.28850662  0.24416168     0.77800
C176        C  0.03474507  0.28966362  0.16103688     0.78900
C177        C  0.93936988  0.17649157  0.14813044     0.78000
C178        C  0.97608412  0.89795538  0.14825172     0.04000
C179        C  0.94827853  0.87090498  0.14640672    -0.12200
C180        C  0.95749042  0.83314920  0.14718039     0.01500
C181        C  0.99486375  0.82239895  0.14991910    -0.10700
C182        C  0.02300196  0.84913718  0.15200877     0.04000
C183        C  0.01340185  0.88688397  0.15113177    -0.10100
H184        H  0.91945900  0.87926093  0.14385054     0.09600
H185        H  0.00202548  0.79323194  0.15100505     0.07100
H186        H  0.03500587  0.90767076  0.15263686     0.06900
C187        C  0.77813824  0.77164100  0.21827155     0.04000
C188        C  0.78893849  0.77103460  0.25561878    -0.12200
C189        C  0.82639492  0.77488053  0.26573032     0.01500
C190        C  0.85307432  0.77873955  0.23768107    -0.10700
C191        C  0.84276978  0.77725934  0.20003203     0.04000
C192        C  0.80507627  0.77403082  0.19048880    -0.10100
H193        H  0.76803971  0.76743330  0.27681565     0.09600
H194        H  0.88208035  0.78173127  0.24519205     0.07100
H195        H  0.79667939  0.77352671  0.16158771     0.06900
C196        C  0.90975698  0.70139455  0.02392039     0.04000
C197        C  0.90877126  0.66419845  0.03510040    -0.12200
C198        C  0.90515061  0.65491892  0.07263961     0.01500
C199        C  0.90167941  0.68307080  0.09917930    -0.10700
C200        C  0.90277270  0.72047800  0.08844970     0.04000
C201        C  0.90703053  0.72946059  0.05072779    -0.10100
H202        H  0.91136680  0.64241871  0.01459766     0.09600
H203        H  0.89928058  0.67581870  0.12824854     0.07100
H204        H  0.90808899  0.75823442  0.04218514     0.06900
C205        C  0.92796794  0.80493830  0.14549451     0.04000
C206        C  0.92869507  0.77735030  0.11815804    -0.12200
C207        C  0.90104272  0.75006163  0.11682482     0.01500
C208        C  0.87256783  0.75050996  0.14333766    -0.10700
C209        C  0.87161036  0.77801330  0.17092018     0.04000
C210        C  0.89931296  0.80526010  0.17164946    -0.10100
H211        H  0.95100876  0.77694637  0.09810904     0.09600
H212        H  0.85146483  0.72916003  0.14280966     0.07100
H213        H  0.89888007  0.82646770  0.19290899     0.06900
Zn214      Zn  0.42413984  0.73779665  0.20860408     1.49700
Zn215      Zn  0.36932123  0.80727175  0.20940654     1.49400
Zn216      Zn  0.43459653  0.80494130  0.15021805     1.49100
Zn217      Zn  0.36568663  0.74931348  0.14212763     1.49500
O218        O  0.39853703  0.77479515  0.17748952    -1.83300
O219        O  0.40779428  0.74036042  0.26230648    -0.73900
O220        O  0.38902462  0.85969289  0.20934338    -0.73700
O221        O  0.48665597  0.78767976  0.16236187    -0.73300
O222        O  0.36942810  0.78839244  0.26218292    -0.73900
O223        O  0.47981083  0.74414886  0.20558173    -0.73500
O224        O  0.43128096  0.85963688  0.16460706    -0.74100
O225        O  0.37755943  0.76393133  0.08943034    -0.73500
O226        O  0.31589651  0.80895573  0.19211546    -0.74300
O227        O  0.42627305  0.80088510  0.09464855    -0.73700
O228        O  0.31206828  0.76395950  0.15005599    -0.74100
O229        O  0.37062284  0.69346496  0.14656984    -0.74000
O230        O  0.41193386  0.68605718  0.19181891    -0.73800
C231        C  0.38538902  0.76174530  0.27920186     0.78000
C232        C  0.41264879  0.87656143  0.18937290     0.78500
C233        C  0.50037839  0.76432512  0.18521303     0.77400
C234        C  0.40219135  0.78434251  0.07464340     0.77800
C235        C  0.29712783  0.78927539  0.16954582     0.78900
C236        C  0.39003885  0.67250543  0.16758314     0.78000
C237        C  0.67681329  0.79712937  0.20371056    -0.04600
C238        C  0.66101101  0.76200443  0.19691009     0.09500
C239        C  0.68403423  0.73041163  0.19495251    -0.02000
C240        C  0.72257693  0.73375400  0.20099494    -0.00300
C241        C  0.73823063  0.76871924  0.20863507    -0.03900
C242        C  0.71535257  0.80049657  0.20954056     0.03100
C243        C  0.61980032  0.75844820  0.19379178     0.10000
C244        C  0.66790679  0.69440951  0.18757251     0.35900
C245        C  0.73137047  0.83656264  0.21708768     0.39300
C246        C  0.60243333  0.75700122  0.15870586    -0.04300
C247        C  0.56336661  0.75795009  0.15589689     0.02900
C248        C  0.54143296  0.76082875  0.18824401    -0.03900
C249        C  0.55903479  0.76135121  0.22341963    -0.00100
C250        C  0.59801737  0.75934414  0.22614129    -0.02600
C251        C  0.62487801  0.75491279  0.12550869     0.36600
C252        C  0.53745477  0.76690119  0.25676982     0.40200
C253        C  0.54581772  0.75581799  0.11964922     0.39400
C254        C  0.61595353  0.75873368  0.26228591     0.36300
C255        C  0.65315095  0.82967500  0.20538839     0.37000
C256        C  0.74609302  0.70110064  0.20068618     0.40200
N257        N  0.53180335  0.75418301  0.09073933    -0.37900
N258        N  0.64283608  0.75306696  0.09906263    -0.39400
N259        N  0.52060740  0.77202503  0.28349933    -0.37200
N260        N  0.63039025  0.75802870  0.29103033    -0.39600
N261        N  0.65505964  0.66567510  0.18155628    -0.39400
N262        N  0.76506250  0.67519087  0.20067501    -0.37000
N263        N  0.74396596  0.86541819  0.22308697    -0.38000
N264        N  0.63407467  0.85546571  0.20682821    -0.39700
C265        C  0.11808388  0.80877851  0.12879717    -0.04600
C266        C  0.13904235  0.81928140  0.16021100     0.09500
C267        C  0.12163577  0.83826449  0.18956455    -0.02000
C268        C  0.08365698  0.84761572  0.18709390    -0.00300
C269        C  0.06270265  0.83772504  0.15533041    -0.03900
C270        C  0.07994709  0.81753521  0.12652246     0.03100
C271        C  0.17975125  0.81103022  0.16200669     0.10000
C272        C  0.14299621  0.84837947  0.22221295     0.35900
C273        C  0.05866049  0.80620957  0.09422241     0.39300
C274        C  0.20517193  0.83470840  0.14415506    -0.04300
C275        C  0.24361830  0.82751081  0.14646702     0.02900
C276        C  0.25675303  0.79613464  0.16598224    -0.03900
C277        C  0.23127444  0.77179548  0.18280237    -0.00100
C278        C  0.19289137  0.77956631  0.18135260    -0.02600
C279        C  0.19159537  0.86644553  0.12337873     0.36600
C280        C  0.24464751  0.73889685  0.20180744     0.40200
C281        C  0.26964694  0.85204222  0.12824434     0.39400
C282        C  0.16685320  0.75544260  0.20003266     0.36300
C283        C  0.13607561  0.78946215  0.09854100     0.37000
C284        C  0.06596247  0.86686281  0.21758275     0.40200
N285        N  0.29035685  0.87160353  0.11361856    -0.37900
N286        N  0.18051616  0.89157301  0.10667230    -0.39400
N287        N  0.25540400  0.71256161  0.21675854    -0.37200
N288        N  0.14601693  0.73638932  0.21512896    -0.39600
N289        N  0.16007974  0.85629608  0.24828262    -0.39400
N290        N  0.05176980  0.88226281  0.24182599    -0.37000
N291        N  0.04162574  0.79683757  0.06861067    -0.38000
N292        N  0.15064185  0.77428127  0.07438537    -0.39700
C293        C  0.93527251  0.99226615  0.17346585    -0.04600
C294        C  0.94997588  0.01483122  0.14519877     0.09500
C295        C  0.97110424  0.99867475  0.11662572    -0.02000
C296        C  0.97907781  0.96041786  0.11726374    -0.00300
C297        C  0.96612514  0.93804367  0.14668553    -0.03900
C298        C  0.94367246  0.95406281  0.17451754     0.03100
C299        C  0.94620132  0.05609418  0.14725462     0.10000
C300        C  0.98480697  0.02165108  0.08667268     0.35900
C301        C  0.93044462  0.93160960  0.20509754     0.39300
C302        C  0.97512668  0.07712638  0.16299934    -0.04300
C303        C  0.97299170  0.11618418  0.16369948     0.02900
C304        C  0.94130638  0.13482389  0.14904135    -0.03900
C305        C  0.91171331  0.11313680  0.13433764    -0.00100
C306        C  0.91448851  0.07410080  0.13307116    -0.02600
C307        C  0.00743461  0.05822945  0.17822052     0.36600
C308        C  0.87774197  0.13053466  0.12118975     0.40200
C309        C  0.00421203  0.13667691  0.17870956     0.39400
C310        C  0.88477851  0.05231995  0.11682987     0.36300
C311        C  0.91179340  0.00856096  0.20164913     0.37000
C312        C  0.00043324  0.94404936  0.08745273     0.40200
N313        N  0.02931283  0.15254171  0.19094289    -0.37900
N314        N  0.03301878  0.04284042  0.19025258    -0.39400
N315        N  0.85062764  0.14433326  0.11066743    -0.37200
N316        N  0.86107279  0.03501105  0.10380981    -0.39600
N317        N  0.99561417  0.04007161  0.06278580    -0.39400
N318        N  0.01752142  0.93095405  0.06373461    -0.37000
N319        N  0.91993489  0.91369372  0.22950488    -0.38000
N320        N  0.89277377  0.02157181  0.22389725    -0.39700
C321        C  0.90869104  0.48434870  0.14401565    -0.04600
C322        C  0.91751128  0.49883595  0.10888688     0.09500
C323        C  0.92927560  0.47491559  0.08040539    -0.02000
C324        C  0.93154121  0.43642901  0.08674740    -0.00300
C325        C  0.92246555  0.42157138  0.12202596    -0.03900
C326        C  0.91085465  0.44589143  0.15057480     0.03100
C327        C  0.91360125  0.53937262  0.10148877     0.10000
C328        C  0.93938908  0.49010988  0.04457892     0.35900
C329        C  0.90163770  0.43173637  0.18703906     0.39300
C330        C  0.94318534  0.56363362  0.10948012    -0.04300
C331        C  0.93981741  0.60170394  0.10133539     0.02900
C332        C  0.90724670  0.61545868  0.08414760    -0.03900
C333        C  0.87756362  0.59115608  0.07637821    -0.00100
C334        C  0.88048664  0.55331841  0.08570036    -0.02600
C335        C  0.97728532  0.54920434  0.12549704     0.36600
C336        C  0.84411323  0.60506484  0.05861573     0.40200
C337        C  0.97023228  0.62662242  0.10976194     0.39400
C338        C  0.84944215  0.52861111  0.07919463     0.36300
C339        C  0.89787372  0.50925050  0.17361324     0.37000
C340        C  0.94204149  0.41223871  0.05637091     0.40200
N341        N  0.99435087  0.64664530  0.11658004    -0.37900
N342        N  0.00450837  0.53760132  0.13816904    -0.39400
N343        N  0.81750190  0.61609831  0.04423685    -0.37200
N344        N  0.82466464  0.50883515  0.07431783    -0.39600
N345        N  0.94763241  0.50227088  0.01608508    -0.39400
N346        N  0.95042574  0.39300056  0.03213893    -0.37000
N347        N  0.89387370  0.42055725  0.21606059    -0.38000
N348        N  0.88950813  0.52913175  0.19730523    -0.39700
C349        C  0.87736079  0.32363993  0.42091138    -0.04600
C350        C  0.90773268  0.30612708  0.40357828     0.09500
C351        C  0.93802321  0.29372358  0.42526430    -0.02000
C352        C  0.93843477  0.29951460  0.46390314    -0.00300
C353        C  0.90800221  0.31676471  0.48147844    -0.03900
C354        C  0.87724689  0.32852607  0.45980898     0.03100
C355        C  0.90901374  0.30208970  0.36225146     0.10000
C356        C  0.96942990  0.27601128  0.40752021     0.35900
C357        C  0.84558208  0.34586711  0.47745801     0.39300
C358        C  0.91991041  0.33235229  0.34002933    -0.04300
C359        C  0.92499229  0.32767009  0.30156163     0.02900
C360        C  0.91796308  0.29299810  0.28481058    -0.03900
C361        C  0.90678373  0.26277495  0.30700701    -0.00100
C362        C  0.90242931  0.26730442  0.34561810    -0.02600
C363        C  0.92669471  0.36815980  0.35695457     0.36600
C364        C  0.89968018  0.22700807  0.29011308     0.40200
C365        C  0.94019478  0.35776127  0.27973223     0.39400
C366        C  0.89159768  0.23606592  0.36841124     0.36300
C367        C  0.84674898  0.33748358  0.39852262     0.37000
C368        C  0.97129075  0.28980483  0.48525717     0.40200
N369        N  0.95306169  0.38152643  0.26253762    -0.37900
N370        N  0.93185886  0.39677778  0.37043762    -0.39400
N371        N  0.89417932  0.19848035  0.27656322    -0.37200
N372        N  0.88313811  0.21110676  0.38664762    -0.39600
N373        N  0.99438421  0.26178401  0.39329766    -0.39400
N374        N  0.99752644  0.28239702  0.50239162    -0.37000
N375        N  0.82027133  0.35974072  0.49142068    -0.38000
N376        N  0.82256811  0.34885514  0.38053901    -0.39700
C377        C  0.00190087  0.27735556  0.94769468    -0.04600
C378        C  0.97442114  0.26410741  0.92320941     0.09500
C379        C  0.93985055  0.25284570  0.93718794    -0.02000
C380        C  0.93201927  0.25615461  0.97534855    -0.00300
C381        C  0.95963740  0.26903876  0.00052164    -0.03900
C382        C  0.99491983  0.27933577  0.98616121     0.03100
C383        C  0.98146609  0.26261593  0.88235425     0.10000
C384        C  0.91229615  0.23761489  0.91200569     0.35900
C385        C  0.02461728  0.29160030  0.01058518     0.39300
C386        C  0.99942468  0.23164957  0.86671510    -0.04300
C387        C  0.00564259  0.23009657  0.82815931     0.02900
C388        C  0.99360111  0.25937841  0.80491778    -0.03900
C389        C  0.97479960  0.28997150  0.82052562    -0.00100
C390        C  0.96912904  0.29174669  0.85918833    -0.02600
C391        C  0.01140742  0.20136513  0.89040534     0.36600
C392        C  0.96190919  0.31996980  0.79692313     0.40200
C393        C  0.02410765  0.19813641  0.81225836     0.39400
C394        C  0.95108186  0.32379810  0.87536919     0.36300
C395        C  0.03749903  0.28902328  0.93314836     0.37000
C396        C  0.89477319  0.24779047  0.98790726     0.40200
N397        N  0.03885819  0.17272136  0.79944018    -0.37900
N398        N  0.02090973  0.17721319  0.90936224    -0.39400
N399        N  0.95140015  0.34380221  0.77807892    -0.37200
N400        N  0.93681437  0.34935662  0.88844546    -0.39600
N401        N  0.89056398  0.22522373  0.89182417    -0.39400
N402        N  0.86493687  0.24128906  0.99765533    -0.37000
N403        N  0.04833719  0.30152720  0.02991774    -0.38000
N404        N  0.06589305  0.29837251  0.92162421    -0.39700
C405        C  0.22925820  0.27401055  0.66403482    -0.04600
C406        C  0.21061419  0.26540850  0.69724328     0.09500
C407        C  0.23104828  0.25292008  0.72836387    -0.02000
C408        C  0.26996407  0.24910174  0.72633924    -0.00300
C409        C  0.28865335  0.25771947  0.69312675    -0.03900
C410        C  0.26811400  0.26969014  0.66181608     0.03100
C411        C  0.16913747  0.26670970  0.69885326     0.10000
C412        C  0.21172129  0.24307134  0.76215320     0.35900
C413        C  0.28699942  0.27725195  0.62718704     0.39300
C414        C  0.14832810  0.23592731  0.68667202    -0.04300
C415        C  0.10949155  0.23526494  0.69132493     0.02900
C416        C  0.09116126  0.26559030  0.70798997    -0.03900
C417        C  0.11195284  0.29689636  0.71914877    -0.00100
C418        C  0.15083944  0.29733225  0.71481331    -0.02600
C419        C  0.16728645  0.20418584  0.67090922     0.36600
C420        C  0.09331109  0.32841086  0.73575961     0.40200
C421        C  0.08877383  0.20242495  0.68097958     0.39400
C422        C  0.17221303  0.32870826  0.72797605     0.36300
C423        C  0.20837389  0.28713339  0.63212422     0.37000
C424        C  0.29041067  0.23399956  0.75763631     0.40200
N425        N  0.07232280  0.17614269  0.67282793    -0.37900
N426        N  0.18266095  0.17894063  0.65849428    -0.39400
N427        N  0.07825446  0.35334010  0.74916678    -0.37200
N428        N  0.18920298  0.35367935  0.73875650    -0.39600
N429        N  0.19604322  0.23521903  0.78895191    -0.39400
N430        N  0.30640677  0.22133480  0.78252477    -0.37000
N431        N  0.30218877  0.28289712  0.59955818    -0.38000
N432        N  0.19177717  0.29769896  0.60664448    -0.39700
C433        C  0.63717771  0.25171203  0.65293757    -0.04600
C434        C  0.65202396  0.21657311  0.66161738     0.09500
C435        C  0.62809224  0.18742692  0.67152329    -0.02000
C436        C  0.58943218  0.19314635  0.67237736    -0.00300
C437        C  0.57432263  0.22882729  0.66542654    -0.03900
C438        C  0.59852144  0.25799138  0.65507485     0.03100
C439        C  0.69275515  0.20921559  0.65851277     0.10000
C440        C  0.64347004  0.15133791  0.68073954     0.35900
C441        C  0.58400745  0.29459061  0.64671846     0.39300
C442        C  0.71712838  0.21899080  0.68765109    -0.04300
C443        C  0.75481374  0.20843488  0.68622424     0.02900
C444        C  0.76832138  0.18829839  0.65551177    -0.03900
C445        C  0.74411680  0.17941768  0.62593839    -0.00100
C446        C  0.70645635  0.18986775  0.62744444    -0.02600
C447        C  0.70323459  0.23924813  0.71940885     0.36600
C448        C  0.75801480  0.15964190  0.59387559     0.40200
C449        C  0.77947933  0.21718028  0.71691780     0.39400
C450        C  0.68148649  0.18030290  0.59726436     0.36300
C451        C  0.66177991  0.28131681  0.64153488     0.37000
C452        C  0.56526523  0.16156652  0.67821866     0.40200
N453        N  0.79926897  0.22401040  0.74134523    -0.37900
N454        N  0.69225049  0.25553690  0.74471899    -0.39400
N455        N  0.76909954  0.14383842  0.56830644    -0.37200
N456        N  0.66134998  0.17266480  0.57337499    -0.39600
N457        N  0.65596942  0.12268717  0.68812187    -0.39400
N458        N  0.54608329  0.13624988  0.68242750    -0.37000
N459        N  0.57255319  0.32375306  0.63966523    -0.38000
N460        N  0.68140828  0.30491514  0.63239171    -0.39700
C461        C  0.35477051  0.78722266  0.45702423    -0.04600
C462        C  0.35578746  0.75315406  0.43775558     0.09500
C463        C  0.34909275  0.71979193  0.45705869    -0.02000
C464        C  0.34067344  0.72055006  0.49516679    -0.00300
C465        C  0.33929661  0.75457677  0.51427539    -0.03900
C466        C  0.34667104  0.78791599  0.49526696     0.03100
C467        C  0.36286847  0.75260095  0.39685693     0.10000
C468        C  0.35047808  0.68470239  0.43760127     0.35900
C469        C  0.34546391  0.82289322  0.51499877     0.39300
C470        C  0.39783726  0.74191435  0.38311949    -0.04300
C471        C  0.40494875  0.74308396  0.34462395     0.02900
C472        C  0.37720229  0.75578207  0.31950297    -0.03900
C473        C  0.34124779  0.76364299  0.33337652    -0.00100
C474        C  0.33433956  0.76249681  0.37183252    -0.02600
C475        C  0.42659822  0.72990754  0.40881938     0.36600
C476        C  0.31062140  0.77094786  0.30805032     0.40200
C477        C  0.44081207  0.73081968  0.33135718     0.39400
C478        C  0.29768461  0.77134266  0.38580725     0.36300
C479        C  0.36174468  0.82154577  0.43731980     0.37000
C480        C  0.33281247  0.68636850  0.51479812     0.40200
N481        N  0.46931001  0.72015371  0.32124089    -0.37900
N482        N  0.44933537  0.72013120  0.42943007    -0.39400
N483        N  0.28615996  0.77640172  0.28781594    -0.37200
N484        N  0.26851435  0.77844785  0.39706623    -0.39600
N485        N  0.35180855  0.65663818  0.42218617    -0.39400
N486        N  0.32636698  0.65930360  0.53071839    -0.37000
N487        N  0.34453672  0.85079994  0.53074315    -0.38000
N488        N  0.36715594  0.84887701  0.42145370    -0.39700
C489        C  0.47179354  0.52624576  0.63477302    -0.04600
C490        C  0.45354436  0.50898425  0.66462000     0.09500
C491        C  0.43979528  0.53065675  0.69408191    -0.02000
C492        C  0.44569855  0.56927007  0.69448105    -0.00300
C493        C  0.46617075  0.58627910  0.66577958    -0.03900
C494        C  0.47844926  0.56469680  0.63547921     0.03100
C495        C  0.44988416  0.46773656  0.66557561     0.10000
C496        C  0.42017611  0.51305089  0.72435253     0.35900
C497        C  0.49776244  0.58208596  0.60486413     0.39300
C498        C  0.48015242  0.44569860  0.67732754    -0.04300
C499        C  0.47664552  0.40683602  0.67899868     0.02900
C500        C  0.44284584  0.38977427  0.66886112    -0.03900
C501        C  0.41264984  0.41185138  0.65682267    -0.00100
C502        C  0.41632856  0.45072761  0.65481816    -0.02600
C503        C  0.51492673  0.46313957  0.68769671     0.36600
C504        C  0.37801312  0.39454145  0.64588717     0.40200
C505        C  0.50738837  0.38450227  0.69254673     0.39400
C506        C  0.38595250  0.47336149  0.64099257     0.36300
C507        C  0.48363902  0.50426890  0.60332122     0.37000
C508        C  0.43150212  0.59127417  0.72495022     0.40200
N509        N  0.53183213  0.36674352  0.70362041    -0.37900
N510        N  0.54268163  0.47713912  0.69574254    -0.39400
N511        N  0.35033181  0.38080360  0.63715207    -0.37200
N512        N  0.36198308  0.49167418  0.62978416    -0.39600
N513        N  0.40447255  0.49905909  0.74850266    -0.39400
N514        N  0.41986863  0.60895608  0.74900795    -0.37000
N515        N  0.51329958  0.59596693  0.58054045    -0.38000
N516        N  0.49283949  0.48663746  0.57820061    -0.39700
C517        C  0.36928768  0.81913164  0.89422322    -0.04600
C518        C  0.40027418  0.80529216  0.91397313     0.09500
C519        C  0.43292793  0.79576982  0.89471570    -0.02000
C520        C  0.43504000  0.80106025  0.85602323    -0.00300
C521        C  0.40445167  0.81594050  0.83641038    -0.03900
C522        C  0.37133704  0.82431713  0.85550097     0.03100
C523        C  0.39894327  0.80061167  0.95519786     0.10000
C524        C  0.46441851  0.78074491  0.91500075     0.35900
C525        C  0.33926604  0.83788034  0.83503809     0.39300
C526        C  0.38761932  0.76666230  0.97062420    -0.04300
C527        C  0.38944800  0.76092736  0.00935383     0.02900
C528        C  0.40210209  0.78958150  0.03329872    -0.03900
C529        C  0.41361351  0.82369244  0.01734802    -0.00100
C530        C  0.41183999  0.82908764  0.97857830    -0.02600
C531        C  0.37469428  0.73735481  0.94628018     0.36600
C532        C  0.42739350  0.85359432  0.04044523     0.40200
C533        C  0.38005618  0.72469411  0.02398109     0.39400
C534        C  0.42363272  0.86398664  0.96250468     0.36300
C535        C  0.33539761  0.82815704  0.91375192     0.37000
C536        C  0.46890151  0.79183032  0.83652705     0.40200
N537        N  0.37270195  0.69564771  0.03537263    -0.37900
N538        N  0.36442719  0.71416159  0.92664018    -0.39400
N539        N  0.43887267  0.87737629  0.05866027    -0.37200
N540        N  0.43303359  0.89179830  0.94966218    -0.39600
N541        N  0.48932857  0.76874310  0.93150081    -0.39400
N542        N  0.49593823  0.78434270  0.82104065    -0.37000
N543        N  0.31385758  0.84855975  0.81837723    -0.38000
N544        N  0.30824032  0.83538807  0.92915175    -0.39700
C545        C  0.37982446  0.96683507  0.71447829    -0.04600
C546        C  0.41340266  0.98655923  0.71845284     0.09500
C547        C  0.44588185  0.96767903  0.72988926    -0.02000
C548        C  0.44464148  0.92947013  0.73795044    -0.00300
C549        C  0.41074319  0.91010688  0.73547026    -0.03900
C550        C  0.37839463  0.92878092  0.72340241     0.03100
C551        C  0.41456288  0.02746924  0.71154811     0.10000
C552        C  0.48052846  0.98773405  0.73360763     0.35900
C553        C  0.34347229  0.90898737  0.72113716     0.39300
C554        C  0.41338577  0.05233049  0.74169773    -0.04300
C555        C  0.41595790  0.09083411  0.73553256     0.02900
C556        C  0.42038322  0.10479672  0.69914431    -0.03900
C557        C  0.42178965  0.07980597  0.66899007    -0.00100
C558        C  0.41813672  0.04133573  0.67514157    -0.02600
C559        C  0.40944790  0.03818482  0.77914555     0.36600
C560        C  0.42928928  0.09336985  0.63191346     0.40200
C561        C  0.41334533  0.11613499  0.76667679     0.39400
C562        C  0.41817969  0.01588066  0.64405238     0.36300
C563        C  0.34674140  0.98582095  0.70143480     0.37000
C564        C  0.47830210  0.90987910  0.74844317     0.40200
N565        N  0.41125598  0.13641293  0.79142347    -0.37900
N566        N  0.40640547  0.02689237  0.80902442    -0.39400
N567        N  0.43584396  0.10399651  0.60237850    -0.37200
N568        N  0.41780807  0.99550379  0.61929899    -0.39600
N569        N  0.50810639  0.00382676  0.73670610    -0.39400
N570        N  0.50512252  0.89408115  0.75658497    -0.37000
N571        N  0.31566077  0.89309060  0.71949321    -0.38000
N572        N  0.32042577  0.00093647  0.69072547    -0.39700
C573        C  0.10468993  0.75152520  0.66096101    -0.04600
C574        C  0.12163810  0.75232202  0.62581062     0.09500
C575        C  0.09944801  0.75338374  0.59353568    -0.02000
C576        C  0.06047400  0.75459484  0.59624652    -0.00300
C577        C  0.04315017  0.75393846  0.63143424    -0.03900
C578        C  0.06558380  0.75203850  0.66384407     0.03100
C579        C  0.16299944  0.75282133  0.62236746     0.10000
C580        C  0.11693771  0.75292576  0.55737622     0.35900
C581        C  0.04863124  0.74889816  0.70013149     0.39300
C582        C  0.18337162  0.71936677  0.62266551    -0.04300
C583        C  0.22205561  0.71981340  0.61674682     0.02900
C584        C  0.24040236  0.75367411  0.61005371    -0.03900
C585        C  0.21999878  0.78707439  0.60960904    -0.00100
C586        C  0.18144075  0.78667219  0.61595952    -0.02600
C587        C  0.16419662  0.68441740  0.62739307     0.36600
C588        C  0.23862136  0.82173825  0.60162668     0.40200
C589        C  0.24279852  0.68533478  0.61597448     0.39400
C590        C  0.16039394  0.82094767  0.61466324     0.36300
C591        C  0.12762204  0.74984594  0.69411643     0.37000
C592        C  0.03839542  0.75724731  0.56257519     0.40200
N593        N  0.25941507  0.65787361  0.61520812    -0.37900
N594        N  0.14880750  0.65653855  0.63089661    -0.39400
N595        N  0.25355726  0.84929318  0.59501853    -0.37200
N596        N  0.14345050  0.84819599  0.61341782    -0.39600
N597        N  0.13101862  0.75241251  0.52861492    -0.39400
N598        N  0.02089101  0.75920641  0.53564194    -0.37000
N599        N  0.03518107  0.74619731  0.72908846    -0.38000
N600        N  0.14597463  0.74842200  0.72052538    -0.39700
C601        C  0.94922242  0.70694335  0.92617215    -0.04600
C602        C  0.91914665  0.72267240  0.90637407     0.09500
C603        C  0.88694967  0.73365231  0.92568475    -0.02000
C604        C  0.88411041  0.72732986  0.96420353    -0.00300
C605        C  0.91377220  0.71062294  0.98385335    -0.03900
C606        C  0.94662999  0.70111535  0.96480294     0.03100
C607        C  0.92035343  0.72587096  0.86487843     0.10000
C608        C  0.85641533  0.75085100  0.90568014     0.35900
C609        C  0.97781524  0.68538772  0.98505609     0.39300
C610        C  0.91370057  0.69443096  0.84269965    -0.04300
C611        C  0.91211278  0.69759683  0.80366540     0.02900
C612        C  0.91650884  0.73263544  0.78617401    -0.03900
C613        C  0.92511900  0.76383288  0.80873487    -0.00100
C614        C  0.92692546  0.76033171  0.84778024    -0.02600
C615        C  0.90822174  0.65866799  0.86027802     0.36600
C616        C  0.93167970  0.79992642  0.79230036     0.40200
C617        C  0.90717115  0.66423695  0.78177866     0.39400
C618        C  0.93534302  0.79233984  0.87061183     0.36300
C619        C  0.98267362  0.69638512  0.90663541     0.37000
C620        C  0.84999673  0.73652035  0.98332392     0.40200
N621        N  0.90330713  0.63749087  0.76452685    -0.37900
N622        N  0.90404606  0.63020781  0.87444552    -0.39400
N623        N  0.93727660  0.82871132  0.77932769    -0.37200
N624        N  0.94202945  0.81783940  0.88886595    -0.39600
N625        N  0.83220467  0.76480436  0.88968558    -0.39400
N626        N  0.82277056  0.74370308  0.99862633    -0.37000
N627        N  0.00259508  0.67286204  0.00137019    -0.38000
N628        N  0.00932303  0.68784468  0.89102131    -0.39700
C629        C  0.86270786  0.02827195  0.69298747    -0.04600
C630        C  0.87840870  0.01051092  0.66192538     0.09500
C631        C  0.88830417  0.03169150  0.63060178    -0.02000
C632        C  0.88146026  0.07019823  0.62980054    -0.00300
C633        C  0.86462406  0.08791659  0.66039008    -0.03900
C634        C  0.85548104  0.06676045  0.69212220     0.03100
C635        C  0.88152708  0.96906074  0.66073528     0.10000
C636        C  0.90453370  0.01352247  0.59868766     0.35900
C637        C  0.83814846  0.08446908  0.72371761     0.39300
C638        C  0.85018471  0.94774728  0.65132330    -0.04300
C639        C  0.85293358  0.90883826  0.64815283     0.02900
C640        C  0.88734120  0.89044812  0.65486752    -0.03900
C641        C  0.91884616  0.91234585  0.66431360    -0.00100
C642        C  0.91579107  0.95131166  0.66723601    -0.02600
C643        C  0.81494040  0.96620572  0.64450594     0.36600
C644        C  0.95503925  0.89537870  0.66968049     0.40200
C645        C  0.81989428  0.88827609  0.63787964     0.39400
C646        C  0.94810610  0.97340163  0.67655141     0.36300
C647        C  0.85358091  0.00670110  0.72563821     0.37000
C648        C  0.88992617  0.09122876  0.59661192     0.40200
N649        N  0.79341930  0.87231392  0.62921533    -0.37900
N650        N  0.78694231  0.98112361  0.63922408    -0.39400
N651        N  0.98393994  0.88193127  0.67398578    -0.37200
N652        N  0.97389085  0.99104976  0.68386755    -0.39600
N653        N  0.91751901  0.99891455  0.57330850    -0.39400
N654        N  0.89656211  0.10806584  0.57014274    -0.37000
N655        N  0.82402839  0.09852231  0.74880708    -0.38000
N656        N  0.84640969  0.98941168  0.75167180    -0.39700
C657        C  0.87491979  0.74705249  0.35623576    -0.04600
C658        C  0.85782108  0.77101043  0.38185233     0.09500
C659        C  0.83128977  0.79700372  0.36936653    -0.02000
C660        C  0.82120843  0.79854762  0.33153630    -0.00300
C661        C  0.83768322  0.77397608  0.30572945    -0.03900
C662        C  0.86453045  0.74805923  0.31844654     0.03100
C663        C  0.86578370  0.76717254  0.42246748     0.10000
C664        C  0.81427153  0.82213161  0.39568613     0.35900
C665        C  0.88012507  0.72100204  0.29315833     0.39300
C666        C  0.89709803  0.78437232  0.43853220    -0.04300
C667        C  0.90393444  0.78110019  0.47701354     0.02900
C668        C  0.87941123  0.76069144  0.49957678    -0.03900
C669        C  0.84799124  0.74362565  0.48345126    -0.00100
C670        C  0.84133597  0.74669623  0.44499671    -0.02600
C671        C  0.92186737  0.80590257  0.41546716     0.36600
C672        C  0.82260981  0.72262150  0.50639574     0.40200
C673        C  0.93524398  0.80010069  0.49367885     0.39400
C674        C  0.80925387  0.72883496  0.42843190     0.36300
C675        C  0.90295349  0.72102464  0.36899324     0.37000
C676        C  0.79363569  0.82538906  0.31944241     0.40200
N677        N  0.96001915  0.81556832  0.50703561    -0.37900
N678        N  0.94156572  0.82307865  0.39697237    -0.39400
N679        N  0.80227508  0.70594957  0.52466641    -0.37200
N680        N  0.78370322  0.71471928  0.41501401    -0.39600
N681        N  0.80076711  0.84215653  0.41673672    -0.39400
N682        N  0.77124773  0.84648304  0.31002698    -0.37000
N683        N  0.89250699  0.69936359  0.27302131    -0.38000
N684        N  0.92550888  0.70049166  0.37922063    -0.39700
C685        C  0.89488409  0.55183979  0.58280522    -0.04600
C686        C  0.91509158  0.52845553  0.60694580     0.09500
C687        C  0.93345541  0.54356708  0.63810414    -0.02000
C688        C  0.93067270  0.58181903  0.64568366    -0.00300
C689        C  0.91104773  0.60530122  0.62109346    -0.03900
C690        C  0.89382769  0.59030755  0.58921082     0.03100
C691        C  0.91719694  0.48787153  0.59913271     0.10000
C692        C  0.95565750  0.51980513  0.66194927     0.35900
C693        C  0.87494822  0.61447177  0.56298731     0.39300
C694        C  0.94666516  0.47350998  0.57789023    -0.04300
C695        C  0.94758691  0.43553396  0.56876578     0.02900
C696        C  0.91925573  0.41165294  0.58132893    -0.03900
C697        C  0.89011419  0.42600996  0.60311942    -0.00100
C698        C  0.88879587  0.46411565  0.61148079    -0.02600
C699        C  0.97546607  0.49813283  0.56463870     0.36600
C700        C  0.86081553  0.40172953  0.61593898     0.40200
C701        C  0.97762563  0.42106254  0.54636716     0.39400
C702        C  0.85743232  0.47924327  0.63148935     0.36300
C703        C  0.87484734  0.53613249  0.55158894     0.37000
C704        C  0.94898826  0.59722476  0.67808014     0.40200
N705        N  0.00150529  0.40958071  0.52834832    -0.37900
N706        N  0.99832383  0.51791354  0.55406216    -0.39400
N707        N  0.83763198  0.38217681  0.62622733    -0.37200
N708        N  0.83218157  0.49141495  0.64702395    -0.39600
N709        N  0.97368110  0.50091160  0.68076729    -0.39400
N710        N  0.96360959  0.60956146  0.70390125    -0.37000
N711        N  0.86028238  0.63382311  0.54187563    -0.38000
N712        N  0.85856926  0.52342948  0.52696488    -0.39700
C713        C  0.70585914  0.68164311  0.64845785    -0.04600
C714        C  0.68118637  0.70885613  0.66186968     0.09500
C715        C  0.69482196  0.74415274  0.67170396    -0.02000
C716        C  0.73288872  0.75237596  0.66771962    -0.00300
C717        C  0.75767575  0.72507606  0.65451661    -0.03900
C718        C  0.74392657  0.68971699  0.64467822     0.03100
C719        C  0.64063499  0.70044752  0.66489392     0.10000
C720        C  0.66966770  0.77177599  0.68651223     0.35900
C721        C  0.76877336  0.66190887  0.62958124     0.39300
C722        C  0.62501940  0.69129781  0.69955576    -0.04300
C723        C  0.58700885  0.68231394  0.70205175     0.02900
C724        C  0.56429394  0.68333440  0.67006295    -0.03900
C725        C  0.57993027  0.69229328  0.63539581    -0.00100
C726        C  0.61800959  0.70070110  0.63279380    -0.02600
C727        C  0.64823315  0.69078519  0.73252830     0.36600
C728        C  0.55694012  0.69184969  0.60223590     0.40200
C729        C  0.57137899  0.67119109  0.73731589     0.39400
C730        C  0.63411563  0.70916848  0.59699945     0.36300
C731        C  0.69198375  0.64517418  0.63884292     0.37000
C732        C  0.74667664  0.78857402  0.67830589     0.40200
N733        N  0.55890910  0.66198254  0.76535400    -0.37900
N734        N  0.66681054  0.69059067  0.75881139    -0.39400
N735        N  0.53855057  0.69132720  0.57582776    -0.37200
N736        N  0.64710516  0.71568064  0.56844991    -0.39600
N737        N  0.64957496  0.79361175  0.69866594    -0.39400
N738        N  0.75761976  0.81746487  0.68682718    -0.37000
N739        N  0.78859828  0.63980345  0.61745771    -0.38000
N740        N  0.68078395  0.61612723  0.63121884    -0.39700
C741        C  0.34743533  0.57590887  0.15933847    -0.04600
C742        C  0.37850044  0.55313445  0.16643834     0.09500
C743        C  0.41364430  0.56926453  0.17196373    -0.02000
C744        C  0.41779517  0.60810748  0.17049253    -0.00300
C745        C  0.38641500  0.63133009  0.16486148    -0.03900
C746        C  0.35121299  0.61481157  0.15877988     0.03100
C747        C  0.37423609  0.51194185  0.16733363     0.10000
C748        C  0.44552147  0.54570126  0.17937299     0.35900
C749        C  0.31843525  0.63759644  0.15309866     0.39300
C750        C  0.37431053  0.49161154  0.13391615    -0.04300
C751        C  0.36917099  0.45290189  0.13453295     0.02900
C752        C  0.36367746  0.43445250  0.16856210    -0.03900
C753        C  0.36392065  0.45470849  0.20201570    -0.00100
C754        C  0.36942819  0.49335694  0.20143595    -0.02600
C755        C  0.37915220  0.51076422  0.09890558     0.36600
C756        C  0.35785203  0.43570816  0.23694345     0.40200
C757        C  0.36880816  0.43209742  0.10015338     0.39400
C758        C  0.36967867  0.51410680  0.23584657     0.36300
C759        C  0.31138468  0.55913924  0.15306276     0.37000
C760        C  0.45470738  0.62387453  0.17339149     0.40200
N761        N  0.36854409  0.41546293  0.07273619    -0.37900
N762        N  0.38289640  0.52627267  0.07107374    -0.39400
N763        N  0.35287681  0.42033489  0.26465324    -0.37200
N764        N  0.36996935  0.53059288  0.26335383    -0.39600
N765        N  0.47080007  0.52679015  0.18551544    -0.39400
N766        N  0.48423519  0.63628335  0.17544398    -0.37000
N767        N  0.29227245  0.65571260  0.14845405    -0.38000
N768        N  0.28269105  0.54568577  0.14796644    -0.39700
C769        C  0.20752477  0.33404368  0.14310765    -0.04600
C770        C  0.19187095  0.31926954  0.17569551     0.09500
C771        C  0.21471248  0.31171807  0.20670921    -0.02000
C772        C  0.25309671  0.31918855  0.20520655    -0.00300
C773        C  0.26859604  0.33497511  0.17292515    -0.03900
C774        C  0.24571739  0.34201184  0.14174660     0.03100
C775        C  0.15133786  0.31073060  0.17648530     0.10000
C776        C  0.19858460  0.29669608  0.24025244     0.35900
C777        C  0.26163175  0.35679679  0.10795431     0.39300
C778        C  0.13897083  0.27473084  0.16771258    -0.04300
C779        C  0.10072297  0.26754285  0.16364895     0.02900
C780        C  0.07462098  0.29627952  0.16870489    -0.03900
C781        C  0.08703078  0.33227284  0.17802533    -0.00100
C782        C  0.12530039  0.33941097  0.18203809    -0.02600
C783        C  0.16585843  0.24561488  0.16084741     0.36600
C784        C  0.06050326  0.36226113  0.18244438     0.40200
C785        C  0.08848153  0.23149252  0.15088098     0.39400
C786        C  0.13807918  0.37658145  0.19042394     0.36300
C787        C  0.18418439  0.34081490  0.11086772     0.37000
C788        C  0.27656688  0.31115722  0.23703837     0.40200
N789        N  0.07876422  0.20293938  0.14005033    -0.37900
N790        N  0.18747239  0.22256122  0.15525505    -0.39400
N791        N  0.03941378  0.38626759  0.18564178    -0.37200
N792        N  0.14832834  0.40625600  0.19688166    -0.39600
N793        N  0.18575759  0.28478794  0.26708496    -0.39400
N794        N  0.29550873  0.30457732  0.26222776    -0.37000
N795        N  0.27433954  0.36857269  0.08100617    -0.38000
N796        N  0.16541206  0.34612691  0.08525675    -0.39700
C797        C  0.38386343  0.22941674  0.39416969    -0.04600
C798        C  0.41430946  0.21955765  0.41697354     0.09500
C799        C  0.44643906  0.20424894  0.40080063    -0.02000
C800        C  0.44838105  0.19941549  0.36208556    -0.00300
C801        C  0.41718543  0.20704645  0.33947853    -0.03900
C802        C  0.38505846  0.22268470  0.35555031     0.03100
C803        C  0.41315541  0.22587836  0.45806513     0.10000
C804        C  0.47721656  0.19264930  0.42416969     0.35900
C805        C  0.35324058  0.23167923  0.33244906     0.39300
C806        C  0.39775496  0.19897972  0.48165414    -0.04300
C807        C  0.39972671  0.20321557  0.52059585     0.02900
C808        C  0.41691679  0.23500804  0.53659942    -0.03900
C809        C  0.43068649  0.26286443  0.51228113    -0.00100
C810        C  0.42896290  0.25806182  0.47340177    -0.02600
C811        C  0.38005014  0.16660955  0.46562820     0.36600
C812        C  0.44610189  0.29708771  0.52669477     0.40200
C813        C  0.38462007  0.17399146  0.54365420     0.39400
C814        C  0.44343776  0.28638592  0.44883967     0.36300
C815        C  0.35134712  0.24631329  0.41062727     0.37000
C816        C  0.48308942  0.18830459  0.34515595     0.40200
N817        N  0.37228905  0.15062044  0.56177688    -0.37900
N818        N  0.36574683  0.14092438  0.45281873    -0.39400
N819        N  0.45846386  0.32445444  0.53794693    -0.37200
N820        N  0.45485003  0.30889843  0.42910500    -0.39600
N821        N  0.50156604  0.18293274  0.44286891    -0.39400
N822        N  0.51084609  0.18021146  0.33131995    -0.37000
N823        N  0.32781823  0.23896688  0.31407573    -0.38000
N824        N  0.32553437  0.25988196  0.42395472    -0.39700
C825        C  0.39103901  0.05116755  0.23463612    -0.04600
C826        C  0.42293469  0.03471901  0.21905559     0.09500
C827        C  0.45458783  0.05667705  0.21249712    -0.02000
C828        C  0.45475432  0.09458152  0.22242773    -0.00300
C829        C  0.42321638  0.11080300  0.23918158    -0.03900
C830        C  0.39117783  0.08897017  0.24471874     0.03100
C831        C  0.42316955  0.99405531  0.21011067     0.10000
C832        C  0.48693151  0.04012985  0.19538338     0.35900
C833        C  0.35794095  0.10570083  0.25995470     0.39300
C834        C  0.41047516  0.98137851  0.17526026    -0.04300
C835        C  0.40768485  0.94296076  0.16809340     0.02900
C836        C  0.41836954  0.91693958  0.19548532    -0.03900
C837        C  0.43274498  0.92969278  0.22969623    -0.00100
C838        C  0.43492425  0.96807613  0.23705239    -0.02600
C839        C  0.40006836  0.00801094  0.14691099     0.36600
C840        C  0.44575871  0.90322091  0.25716875     0.40200
C841        C  0.39211012  0.93025479  0.13321372     0.39400
C842        C  0.44906303  0.98095668  0.27247624     0.36300
C843        C  0.35787257  0.02916487  0.23995249     0.37000
C844        C  0.48760932  0.11672271  0.21586466     0.40200
N845        N  0.37934536  0.92020743  0.10548767    -0.37900
N846        N  0.39203354  0.02937885  0.12428497    -0.39400
N847        N  0.45631834  0.88202356  0.27892455    -0.37200
N848        N  0.46038801  0.99131534  0.30070315    -0.39600
N849        N  0.51262728  0.02680969  0.18159951    -0.39400
N850        N  0.51374807  0.13444990  0.21043885    -0.37000
N851        N  0.33151139  0.11922034  0.27208453    -0.38000
N852        N  0.33132103  0.01168813  0.24401882    -0.39700
C853        C  0.73290694  0.27951252  0.09520277    -0.04600
C854        C  0.71267911  0.26678112  0.12611011     0.09500
C855        C  0.73163656  0.25696104  0.15901754    -0.02000
C856        C  0.77072121  0.25897880  0.16071845    -0.00300
C857        C  0.79108900  0.27075831  0.12945257    -0.03900
C858        C  0.77198934  0.28174784  0.09693251     0.03100
C859        C  0.67127514  0.26397552  0.12381853     0.10000
C860        C  0.71082438  0.24500369  0.19116837     0.35900
C861        C  0.79233982  0.29731935  0.06604497     0.39300
C862        C  0.65462081  0.23231392  0.10803596    -0.04300
C863        C  0.61574336  0.23078603  0.10320451     0.02900
C864        C  0.59330506  0.26112120  0.11389521    -0.03900
C865        C  0.61003084  0.29247153  0.13039871    -0.00100
C866        C  0.64883742  0.29376231  0.13555637    -0.02600
C867        C  0.67776409  0.20175908  0.09589459     0.36600
C868        C  0.58750840  0.32436038  0.14007994     0.40200
C869        C  0.59890529  0.19817556  0.08681148     0.39400
C870        C  0.66588560  0.32631119  0.15180570     0.36300
C871        C  0.71326281  0.29083193  0.06182512     0.37000
C872        C  0.79005957  0.24883609  0.19466488     0.40200
N873        N  0.58559398  0.17214012  0.07364036    -0.37900
N874        N  0.69644135  0.17758128  0.08612471    -0.39400
N875        N  0.56936153  0.34973728  0.14755980    -0.37200
N876        N  0.67943827  0.35231884  0.16476763    -0.39600
N877        N  0.69419533  0.23561163  0.21687173    -0.39400
N878        N  0.80561964  0.24093927  0.22171705    -0.37000
N879        N  0.80842559  0.31021642  0.04153785    -0.38000
N880        N  0.69735132  0.29982719  0.03532777    -0.39700
C881        C  0.49756599  0.26738802  0.87578408    -0.04600
C882        C  0.46795086  0.27079840  0.90095608     0.09500
C883        C  0.43120838  0.27279597  0.88744180    -0.02000
C884        C  0.42396642  0.27044134  0.84896822    -0.00300
C885        C  0.45347590  0.26528436  0.82366169    -0.03900
C886        C  0.49043935  0.26455819  0.83735099     0.03100
C887        C  0.47548932  0.27077785  0.94185658     0.10000
C888        C  0.40079284  0.27665441  0.91336444     0.35900
C889        C  0.52139253  0.26193005  0.81189134     0.39300
C890        C  0.48767703  0.30332020  0.95987619    -0.04300
C891        C  0.49598495  0.30267568  0.99815775     0.02900
C892        C  0.49316105  0.26928778  0.01829067    -0.03900
C893        C  0.48044354  0.23692385  0.00049661    -0.00100
C894        C  0.47123206  0.23775760  0.96245931    -0.02600
C895        C  0.49198893  0.33732720  0.93893593     0.36600
C896        C  0.47739233  0.20266730  0.02133629     0.40200
C897        C  0.50705660  0.33636655  0.01707736     0.39400
C898        C  0.45760943  0.20456623  0.94437683     0.36300
C899        C  0.53545170  0.26643788  0.88961869     0.37000
C900        C  0.38595515  0.27246198  0.83577819     0.40200
N901        N  0.51560891  0.36316502  0.03246652    -0.37900
N902        N  0.49567497  0.36445820  0.92224295    -0.39400
N903        N  0.47509151  0.17543917  0.03813575    -0.37200
N904        N  0.44647209  0.17817954  0.92996346    -0.39600
N905        N  0.37659913  0.27954092  0.93414451    -0.39400
N906        N  0.35554799  0.27449797  0.82550869    -0.37000
N907        N  0.54611051  0.25989863  0.79162450    -0.38000
N908        N  0.56561919  0.26586268  0.90078502    -0.39700
loop_ 
_geom_bond_atom_site_label_1 
_geom_bond_atom_site_label_2 
_geom_bond_distance 
_geom_bond_site_symmetry_2 
_ccdc_geom_bond_type 
C1            C2   1.408       .  A
C1            C6   1.402       .  A
C1          C864   1.490       .  S
C2            C3   1.408       .  A
C2            H7   1.084       .  S
C3            C4   1.404       .  A
C3           C30   1.482       .  S
C4            C5   1.399       .  A
C4            H8   1.084       .  S
C5            C6   1.399       .  A
C5          C892   1.481       .  S
C6            H9   1.084       .  S
C10          C11   1.406       .  A
C10          C15   1.402       .  A
C10         C801   1.490       .  S
C11          C12   1.406       .  A
C11          H16   1.084       .  S
C12          C13   1.403       .  A
C12         C829   1.496       .  S
C13          C14   1.406       .  A
C13          H17   1.084       .  S
C14          C15   1.406       .  A
C14          C28   1.480       .  S
C15          H18   1.084       .  S
C19          C20   1.403       .  A
C19          C24   1.398       .  A
C19         C752   1.482       .  S
C20          C21   1.407       .  A
C20          H25   1.084       .  S
C21          C22   1.407       .  A
C21          C32   1.482       .  S
C22          C23   1.402       .  A
C22          H26   1.084       .  S
C23          C24   1.400       .  A
C23         C773   1.486       .  S
C24          H27   1.084       .  S
C28          C29   1.405       .  A
C28          C33   1.403       .  A
C29          C30   1.404       .  A
C29          H34   1.084       .  S
C30          C31   1.407       .  A
C31          C32   1.404       .  A
C31          H35   1.084       .  S
C32          C33   1.404       .  A
C33          H36   1.085       .  S
Zn37         O41   1.959       .  S
Zn37         O42   2.026       .  S
Zn37         O46   2.007       .  S
Zn37         O53   2.009       .  S
Zn38         O41   1.965       .  S
Zn38         O43   2.031       .  S
Zn38         O45   2.021       .  S
Zn38         O49   2.026       .  S
Zn39         O41   1.961       .  S
Zn39         O44   2.022       .  S
Zn39         O47   2.014       .  S
Zn39         O50   2.029       .  S
Zn40         O41   1.965       .  S
Zn40         O48   2.026       .  S
Zn40         O51   2.033       .  S
Zn40         O52   2.031       .  S
O42          C54   1.273       .  A
O43          C55   1.275       .  A
O44          C56   1.273       .  A
O45          C54   1.273       .  A
O46          C56   1.272       .  A
O47          C55   1.273       .  A
O48          C57   1.274       .  A
O49          C58   1.275       .  A
O50          C57   1.275       .  A
O51          C58   1.276       .  A
O52          C59   1.275   1_655  A
O53          C59   1.273   1_655  A
C54         C668   1.483       .  S
C55         C717   1.486       .  S
C56         C689   1.479       .  S
C57         C612   1.506       .  S
C58         C640   1.509       .  S
C59         C577   1.493       .  S
C60          C61   1.401       .  A
C60          C65   1.405       .  A
C60         C521   1.485       .  S
C61          C62   1.399       .  A
C61          H66   1.087       .  S
C62          C63   1.402       .  A
C62         C549   1.485       .  S
C63          C64   1.406       .  A
C63          H67   1.081       .  S
C64          C65   1.406       .  A
C64          C91   1.478       .  S
C65          H68   1.081       .  S
C69          C70   1.404       .  A
C69          C74   1.403       .  A
C69         C493   1.489       .  S
C70          C71   1.405       .  A
C70          H75   1.084       .  S
C71          C72   1.407       .  A
C71          C89   1.482       .  S
C72          C73   1.403       .  A
C72          H76   1.083       .  S
C73          C74   1.398       .  A
C73         C724   1.484       .  S
C74          H77   1.084       .  S
C78          C79   1.400       .  A
C78          C83   1.404       .  A
C78         C584   1.484       .  S
C79          C80   1.400       .  A
C79          H84   1.083       .  S
C80          C81   1.400       .  A
C80         C465   1.481       .  S
C81          C82   1.404       .  A
C81          H85   1.087       .  S
C82          C83   1.407       .  A
C82          C87   1.478       .  S
C83          H86   1.082       .  S
C87          C88   1.405       .  A
C87          C92   1.402       .  A
C88          C89   1.405       .  A
C88          H93   1.084       .  S
C89          C90   1.405       .  A
C90          C91   1.405       .  A
C90          H94   1.084       .  S
C91          C92   1.403       .  A
C92          H95   1.087       .  S
Zn96        O100   1.968       .  S
Zn96        O101   2.029       .  S
Zn96        O105   2.030       .  S
Zn96        O112   2.026       .  S
Zn97        O100   1.969       .  S
Zn97        O102   2.028       .  S
Zn97        O104   2.023       .  S
Zn97        O108   2.035       .  S
Zn98        O100   1.965       .  S
Zn98        O103   2.024       .  S
Zn98        O106   2.019       .  S
Zn98        O109   2.033       .  S
Zn99        O100   1.956       .  S
Zn99        O107   2.014       .  S
Zn99        O110   2.018       .  S
Zn99        O111   2.008       .  S
O101        C113   1.276       .  A
O102        C114   1.275       .  A
O103        C115   1.274       .  A
O104        C113   1.274       .  A
O105        C115   1.275       .  A
O106        C114   1.274       .  A
O107        C116   1.274       .  A
O108        C117   1.275       .  A
O109        C116   1.275       .  A
O110        C117   1.273       .  A
O111        C118   1.273       .  A
O112        C118   1.274       .  A
C113        C500   1.483       .  S
C114        C409   1.483       .  S
C115        C808   1.511       .  S
C116        C556   1.488       .  S
C117        C885   1.495       .  S
C118        C437   1.495       .  S
C119        C120   1.406       .  A
C119        C124   1.401       .  A
C119        C416   1.490       .  S
C120        C121   1.408   1_455  A
C120        H125   1.084       .  S
C121        C122   1.409       .  A
C121        C146   1.484       .  S
C122        C123   1.404   1_655  A
C122        H126   1.084       .  S
C123        C124   1.399       .  A
C123        C388   1.489   1_455  S
C124        H127   1.085       .  S
C128        C129   1.401       .  A
C128        C133   1.409       .  A
C128        C353   1.492       .  S
C129        C130   1.400       .  A
C129        H134   1.084       .  S
C130        C131   1.402       .  A
C130        C696   1.486       .  S
C131        C132   1.406       .  A
C131        H135   1.084       .  S
C132        C133   1.410       .  A
C132        C148   1.489       .  S
C133        H136   1.084       .  S
C137        C138   1.408       .  A
C137        C142   1.404       .  A
C137        C633   1.494       .  S
C138        C139   1.408       .  A
C138        H143   1.084       .  S
C139        C140   1.403       .  A
C139        C150   1.482       .  S
C140        C141   1.400       .  A
C140        H144   1.084       .  S
C141        C142   1.402       .  A
C141        C444   1.485       .  S
C142        H145   1.084       .  S
C146        C147   1.406       .  A
C146        C151   1.404       .  A
C147        C148   1.409       .  A
C147        H152   1.084       .  S
C148        C149   1.406       .  A
C149        C150   1.407       .  A
C149        H153   1.084       .  S
C150        C151   1.403       .  A
C151        H154   1.084       .  S
Zn155       O159   1.959       .  S
Zn155       O160   2.029       .  S
Zn155       O164   2.047       .  S
Zn155       O171   2.022       .  S
Zn156       O159   1.949       .  S
Zn156       O161   1.993       .  S
Zn156       O163   2.005       .  S
Zn156       O167   1.995   1_655  S
Zn157       O159   1.955       .  S
Zn157       O162   2.004       .  S
Zn157       O165   2.017       .  S
Zn157       O168   2.014       .  S
Zn158       O159   1.968       .  S
Zn158       O166   2.024       .  S
Zn158       O169   2.039   1_655  S
Zn158       O170   2.035       .  S
O160        C172   1.275       .  A
O161        C173   1.270       .  A
O162        C174   1.272       .  A
O163        C172   1.272       .  A
O164        C174   1.277       .  A
O165        C173   1.273       .  A
O166        C175   1.274       .  A
O167        C176   1.271       .  A
O168        C175   1.273       .  A
O169        C176   1.276       .  A
O170        C177   1.276       .  A
O171        C177   1.275       .  A
C172        C381   1.504       .  S
C173        C325   1.491       .  S
C174        C857   1.484       .  S
C175        C360   1.484       .  S
C176        C780   1.482       .  S
C177        C304   1.506       .  S
C178        C179   1.402       .  A
C178        C183   1.405   1_655  A
C178        C297   1.491       .  S
C179        C180   1.402       .  A
C179        H184   1.084       .  S
C180        C181   1.404       .  A
C180        C205   1.475       .  S
C181        C182   1.403   1_655  A
C181        H185   1.084   1_655  S
C182        C183   1.405       .  A
C182        C269   1.492       .  S
C183        H186   1.084       .  S
C187        C188   1.400       .  A
C187        C192   1.401       .  A
C187        C241   1.482       .  S
C188        C189   1.403       .  A
C188        H193   1.084       .  S
C189        C190   1.406       .  A
C189        C661   1.497       .  S
C190        C191   1.406       .  A
C190        H194   1.084       .  S
C191        C192   1.405       .  A
C191        C209   1.481       .  S
C192        H195   1.084       .  S
C196        C197   1.402       .  A
C196        C201   1.405       .  A
C196        C605   1.490   1_554  S
C197        C198   1.401       .  A
C197        H202   1.084       .  S
C198        C199   1.403       .  A
C198        C332   1.485       .  S
C199        C200   1.405       .  A
C199        H203   1.084       .  S
C200        C201   1.407       .  A
C200        C207   1.481       .  S
C201        H204   1.084       .  S
C205        C206   1.402       .  A
C205        C210   1.402       .  A
C206        C207   1.403       .  A
C206        H211   1.084       .  S
C207        C208   1.406       .  A
C208        C209   1.407       .  A
C208        H212   1.084       .  S
C209        C210   1.403       .  A
C210        H213   1.084       .  S
Zn214       O218   1.968       .  S
Zn214       O219   2.029       .  S
Zn214       O223   2.023       .  S
Zn214       O230   2.013       .  S
Zn215       O218   1.954       .  S
Zn215       O220   2.023       .  S
Zn215       O222   2.020       .  S
Zn215       O226   2.021       .  S
Zn216       O218   1.964       .  S
Zn216       O221   2.021       .  S
Zn216       O224   2.045       .  S
Zn216       O227   2.030       .  S
Zn217       O218   1.966       .  S
Zn217       O225   2.020       .  S
Zn217       O228   2.024       .  S
Zn217       O229   2.029       .  S
O219        C231   1.274       .  A
O220        C232   1.274       .  A
O221        C233   1.275       .  A
O222        C231   1.275       .  A
O223        C233   1.275       .  A
O224        C232   1.276       .  A
O225        C234   1.274       .  A
O226        C235   1.274       .  A
O227        C234   1.275       .  A
O228        C235   1.274       .  A
O229        C236   1.275       .  A
O230        C236   1.273       .  A
C231        C472   1.500       .  S
C232        C836   1.489       .  S
C233        C248   1.488       .  S
C234        C528   1.502       .  S
C235        C276   1.480       .  S
C236        C745   1.496       .  S
C237        C238   1.412       .  A
C237        C242   1.409       .  A
C237        C255   1.452       .  S
C238        C239   1.411       .  A
C238        C243   1.495       .  S
C239        C240   1.410       .  A
C239        C244   1.449       .  S
C240        C241   1.411       .  A
C240        C256   1.450       .  S
C241        C242   1.412       .  A
C242        C245   1.451       .  S
C243        C246   1.409       .  A
C243        C250   1.410       .  A
C244        N261   1.157       .  T
C245        N263   1.157       .  T
C246        C247   1.411       .  A
C246        C251   1.450       .  S
C247        C248   1.416       .  A
C247        C253   1.451       .  S
C248        C249   1.415       .  A
C249        C250   1.409       .  A
C249        C252   1.449       .  S
C250        C254   1.452       .  S
C251        N258   1.157       .  T
C252        N259   1.157       .  T
C253        N257   1.157       .  T
C254        N260   1.157       .  T
C255        N264   1.157       .  T
C256        N262   1.157       .  T
C265        C266   1.411       .  A
C265        C270   1.411       .  A
C265        C283   1.451       .  S
C266        C267   1.411       .  A
C266        C271   1.497       .  S
C267        C268   1.411       .  A
C267        C272   1.450       .  S
C268        C269   1.415       .  A
C268        C284   1.451       .  S
C269        C270   1.415       .  A
C270        C273   1.451       .  S
C271        C274   1.412       .  A
C271        C278   1.412       .  A
C272        N289   1.157       .  T
C273        N291   1.157       .  T
C274        C275   1.411       .  A
C274        C279   1.451       .  S
C275        C276   1.412       .  A
C275        C281   1.451       .  S
C276        C277   1.411       .  A
C277        C278   1.411       .  A
C277        C280   1.450       .  S
C278        C282   1.450       .  S
C279        N286   1.157       .  T
C280        N287   1.157       .  T
C281        N285   1.157       .  T
C282        N288   1.157       .  T
C283        N292   1.157       .  T
C284        N290   1.157       .  T
C293        C294   1.410   1_565  A
C293        C298   1.412       .  A
C293        C311   1.450   1_565  S
C294        C295   1.410   1_545  A
C294        C299   1.497       .  S
C295        C296   1.410       .  A
C295        C300   1.450   1_565  S
C296        C297   1.414       .  A
C296        C312   1.451   1_655  S
C297        C298   1.416       .  A
C298        C301   1.451       .  S
C299        C302   1.408       .  A
C299        C306   1.407       .  A
C300        N317   1.157       .  T
C301        N319   1.157       .  T
C302        C303   1.412       .  A
C302        C307   1.453   1_655  S
C303        C304   1.423       .  A
C303        C309   1.451   1_655  S
C304        C305   1.425       .  A
C305        C306   1.413       .  A
C305        C308   1.452       .  S
C306        C310   1.451       .  S
C307        N314   1.157       .  T
C308        N315   1.158       .  T
C309        N313   1.157       .  T
C310        N316   1.157       .  T
C311        N320   1.157       .  T
C312        N318   1.157       .  T
C321        C322   1.408       .  A
C321        C326   1.410       .  A
C321        C339   1.451       .  S
C322        C323   1.409       .  A
C322        C327   1.493       .  S
C323        C324   1.410       .  A
C323        C328   1.451       .  S
C324        C325   1.420       .  A
C324        C340   1.453       .  S
C325        C326   1.418       .  A
C326        C329   1.451       .  S
C327        C330   1.410       .  A
C327        C334   1.411       .  A
C328        N345   1.157       .  T
C329        N347   1.157       .  T
C330        C331   1.410       .  A
C330        C335   1.450       .  S
C331        C332   1.413       .  A
C331        C337   1.451       .  S
C332        C333   1.412       .  A
C333        C334   1.410       .  A
C333        C336   1.450       .  S
C334        C338   1.451       .  S
C335        N342   1.157   1_655  T
C336        N343   1.157       .  T
C337        N341   1.157       .  T
C338        N344   1.157       .  T
C339        N348   1.157       .  T
C340        N346   1.158       .  T
C349        C350   1.412       .  A
C349        C354   1.414       .  A
C349        C367   1.451       .  S
C350        C351   1.411       .  A
C350        C355   1.498       .  S
C351        C352   1.409       .  A
C351        C356   1.451       .  S
C352        C353   1.413       .  A
C352        C368   1.451       .  S
C353        C354   1.416       .  A
C354        C357   1.451       .  S
C355        C358   1.412       .  A
C355        C362   1.412       .  A
C356        N373   1.157       .  T
C357        N375   1.157       .  T
C358        C359   1.410       .  A
C358        C363   1.451       .  S
C359        C360   1.413       .  A
C359        C365   1.451       .  S
C360        C361   1.413       .  A
C361        C362   1.411       .  A
C361        C364   1.451       .  S
C362        C366   1.450       .  S
C363        N370   1.157       .  T
C364        N371   1.157       .  T
C365        N369   1.157       .  T
C366        N372   1.157       .  T
C367        N376   1.157       .  T
C368        N374   1.157       .  T
C377        C378   1.408   1_455  A
C377        C382   1.413   1_455  A
C377        C395   1.452       .  S
C378        C379   1.407       .  A
C378        C383   1.497       .  S
C379        C380   1.411       .  A
C379        C384   1.451       .  S
C380        C381   1.423   1_556  A
C380        C396   1.451       .  S
C381        C382   1.425   1_554  A
C382        C385   1.452   1_656  S
C383        C386   1.410       .  A
C383        C390   1.412       .  A
C384        N401   1.157       .  T
C385        N403   1.158       .  T
C386        C387   1.410   1_655  A
C386        C391   1.450   1_655  S
C387        C388   1.414   1_455  A
C387        C393   1.451       .  S
C388        C389   1.413       .  A
C389        C390   1.412       .  A
C389        C392   1.450       .  S
C390        C394   1.451       .  S
C391        N398   1.157       .  T
C392        N399   1.157       .  T
C393        N397   1.157       .  T
C394        N400   1.157       .  T
C395        N404   1.157       .  T
C396        N402   1.157       .  T
C405        C406   1.411       .  A
C405        C410   1.411       .  A
C405        C423   1.450       .  S
C406        C407   1.412       .  A
C406        C411   1.497       .  S
C407        C408   1.411       .  A
C407        C412   1.451       .  S
C408        C409   1.412       .  A
C408        C424   1.449       .  S
C409        C410   1.413       .  A
C410        C413   1.451       .  S
C411        C414   1.411       .  A
C411        C418   1.411       .  A
C412        N429   1.157       .  T
C413        N431   1.157       .  T
C414        C415   1.411       .  A
C414        C419   1.451       .  S
C415        C416   1.414       .  A
C415        C421   1.451       .  S
C416        C417   1.415       .  A
C417        C418   1.411       .  A
C417        C420   1.451       .  S
C418        C422   1.450       .  S
C419        N426   1.157       .  T
C420        N427   1.157       .  T
C421        N425   1.157       .  T
C422        N428   1.157       .  T
C423        N432   1.157       .  T
C424        N430   1.157       .  T
C433        C434   1.410       .  A
C433        C438   1.413       .  A
C433        C451   1.451       .  S
C434        C435   1.409       .  A
C434        C439   1.496       .  S
C435        C436   1.408       .  A
C435        C440   1.452       .  S
C436        C437   1.419       .  A
C436        C452   1.452       .  S
C437        C438   1.420       .  A
C438        C441   1.450       .  S
C439        C442   1.411       .  A
C439        C446   1.412       .  A
C440        N457   1.157       .  T
C441        N459   1.157       .  T
C442        C443   1.411       .  A
C442        C447   1.450       .  S
C443        C444   1.413       .  A
C443        C449   1.451       .  S
C444        C445   1.412       .  A
C445        C446   1.409       .  A
C445        C448   1.450       .  S
C446        C450   1.451       .  S
C447        N454   1.157       .  T
C448        N455   1.157       .  T
C449        N453   1.157       .  T
C450        N456   1.157       .  T
C451        N460   1.157       .  T
C452        N458   1.157       .  T
C461        C462   1.414       .  A
C461        C466   1.411       .  A
C461        C479   1.451       .  S
C462        C463   1.412       .  A
C462        C467   1.498       .  S
C463        C464   1.409       .  A
C463        C468   1.450       .  S
C464        C465   1.410       .  A
C464        C480   1.451       .  S
C465        C466   1.411       .  A
C466        C469   1.451       .  S
C467        C470   1.410       .  A
C467        C474   1.409       .  A
C468        N485   1.157       .  T
C469        N487   1.157       .  T
C470        C471   1.413       .  A
C470        C475   1.452       .  S
C471        C472   1.420       .  A
C471        C477   1.449       .  S
C472        C473   1.420       .  A
C473        C474   1.411       .  A
C473        C476   1.452       .  S
C474        C478   1.451       .  S
C475        N482   1.157       .  T
C476        N483   1.157       .  T
C477        N481   1.157       .  T
C478        N484   1.157       .  T
C479        N488   1.157       .  T
C480        N486   1.157       .  T
C489        C490   1.410       .  A
C489        C494   1.409       .  A
C489        C507   1.450       .  S
C490        C491   1.411       .  A
C490        C495   1.495       .  S
C491        C492   1.411       .  A
C491        C496   1.450       .  S
C492        C493   1.415       .  A
C492        C508   1.451       .  S
C493        C494   1.415       .  A
C494        C497   1.451       .  S
C495        C498   1.411       .  A
C495        C502   1.410       .  A
C496        N513   1.157       .  T
C497        N515   1.157       .  T
C498        C499   1.410       .  A
C498        C503   1.451       .  S
C499        C500   1.413       .  A
C499        C505   1.451       .  S
C500        C501   1.413       .  A
C501        C502   1.412       .  A
C501        C504   1.450       .  S
C502        C506   1.450       .  S
C503        N510   1.157       .  T
C504        N511   1.157       .  T
C505        N509   1.157       .  T
C506        N512   1.157       .  T
C507        N516   1.157       .  T
C508        N514   1.157       .  T
C517        C518   1.411       .  A
C517        C522   1.411       .  A
C517        C535   1.450       .  S
C518        C519   1.412       .  A
C518        C523   1.497       .  S
C519        C520   1.410       .  A
C519        C524   1.450       .  S
C520        C521   1.411       .  A
C520        C536   1.450       .  S
C521        C522   1.413       .  A
C522        C525   1.451       .  S
C523        C526   1.407       .  A
C523        C530   1.408       .  A
C524        N541   1.157       .  T
C525        N543   1.157       .  T
C526        C527   1.413   1_556  A
C526        C531   1.451       .  S
C527        C528   1.422       .  A
C527        C533   1.451       .  S
C528        C529   1.422       .  A
C529        C530   1.412   1_554  A
C529        C532   1.451       .  S
C530        C534   1.452       .  S
C531        N538   1.157       .  T
C532        N539   1.157       .  T
C533        N537   1.157       .  T
C534        N540   1.157       .  T
C535        N544   1.157       .  T
C536        N542   1.157       .  T
C545        C546   1.412       .  A
C545        C550   1.412       .  A
C545        C563   1.450       .  S
C546        C547   1.412       .  A
C546        C551   1.498   1_565  S
C547        C548   1.410       .  A
C547        C552   1.450       .  S
C548        C549   1.411       .  A
C548        C564   1.451       .  S
C549        C550   1.412       .  A
C550        C553   1.451       .  S
C551        C554   1.411       .  A
C551        C558   1.411       .  A
C552        N569   1.157   1_565  T
C553        N571   1.157       .  T
C554        C555   1.411       .  A
C554        C559   1.451       .  S
C555        C556   1.415       .  A
C555        C561   1.452       .  S
C556        C557   1.415       .  A
C557        C558   1.413       .  A
C557        C560   1.450       .  S
C558        C562   1.450       .  S
C559        N566   1.157       .  T
C560        N567   1.157       .  T
C561        N565   1.157       .  T
C562        N568   1.157   1_545  T
C563        N572   1.157   1_565  T
C564        N570   1.157       .  T
C573        C574   1.410       .  A
C573        C578   1.414       .  A
C573        C591   1.451       .  S
C574        C575   1.409       .  A
C574        C579   1.496       .  S
C575        C576   1.409       .  A
C575        C580   1.451       .  S
C576        C577   1.417       .  A
C576        C592   1.451       .  S
C577        C578   1.419       .  A
C578        C581   1.451       .  S
C579        C582   1.412       .  A
C579        C586   1.412       .  A
C580        N597   1.157       .  T
C581        N599   1.158       .  T
C582        C583   1.412       .  A
C582        C587   1.450       .  S
C583        C584   1.412       .  A
C583        C589   1.451       .  S
C584        C585   1.411       .  A
C585        C586   1.410       .  A
C585        C588   1.451       .  S
C586        C590   1.450       .  S
C587        N594   1.157       .  T
C588        N595   1.157       .  T
C589        N593   1.157       .  T
C590        N596   1.157       .  T
C591        N600   1.157       .  T
C592        N598   1.157       .  T
C601        C602   1.412       .  A
C601        C606   1.412       .  A
C601        C619   1.450       .  S
C602        C603   1.413       .  A
C602        C607   1.501       .  S
C603        C604   1.411       .  A
C603        C608   1.450       .  S
C604        C605   1.413       .  A
C604        C620   1.451       .  S
C605        C606   1.414       .  A
C606        C609   1.451       .  S
C607        C610   1.409       .  A
C607        C614   1.409       .  A
C608        N625   1.157       .  T
C609        N627   1.157   1_656  T
C610        C611   1.413       .  A
C610        C615   1.452       .  S
C611        C612   1.422       .  A
C611        C617   1.451       .  S
C612        C613   1.424       .  A
C613        C614   1.414       .  A
C613        C616   1.451       .  S
C614        C618   1.451       .  S
C615        N622   1.157       .  T
C616        N623   1.158       .  T
C617        N621   1.157       .  T
C618        N624   1.157       .  T
C619        N628   1.157   1_655  T
C620        N626   1.157       .  T
C629        C630   1.412       .  A
C629        C634   1.413       .  A
C629        C647   1.450       .  S
C630        C631   1.411       .  A
C630        C635   1.501   1_545  S
C631        C632   1.411       .  A
C631        C636   1.450       .  S
C632        C633   1.415       .  A
C632        C648   1.451       .  S
C633        C634   1.416       .  A
C634        C637   1.451       .  S
C635        C638   1.408       .  A
C635        C642   1.408       .  A
C636        N653   1.157   1_545  T
C637        N655   1.157       .  T
C638        C639   1.413       .  A
C638        C643   1.452       .  S
C639        C640   1.424       .  A
C639        C645   1.451       .  S
C640        C641   1.425       .  A
C641        C642   1.415       .  A
C641        C644   1.451       .  S
C642        C646   1.451       .  S
C643        N650   1.157       .  T
C644        N651   1.158       .  T
C645        N649   1.157       .  T
C646        N652   1.157       .  T
C647        N656   1.157   1_545  T
C648        N654   1.157       .  T
C657        C658   1.409       .  A
C657        C662   1.411       .  A
C657        C675   1.451       .  S
C658        C659   1.410       .  A
C658        C663   1.497       .  S
C659        C660   1.411       .  A
C659        C664   1.451       .  S
C660        C661   1.418       .  A
C660        C676   1.451       .  S
C661        C662   1.418       .  A
C662        C665   1.451       .  S
C663        C666   1.411       .  A
C663        C670   1.411       .  A
C664        N681   1.157       .  T
C665        N683   1.157       .  T
C666        C667   1.413       .  A
C666        C671   1.450       .  S
C667        C668   1.412       .  A
C667        C673   1.450       .  S
C668        C669   1.413       .  A
C669        C670   1.410       .  A
C669        C672   1.451       .  S
C670        C674   1.451       .  S
C671        N678   1.157       .  T
C672        N679   1.157       .  T
C673        N677   1.157       .  T
C674        N680   1.157       .  T
C675        N684   1.157       .  T
C676        N682   1.157       .  T
C685        C686   1.410       .  A
C685        C690   1.408       .  A
C685        C703   1.451       .  S
C686        C687   1.412       .  A
C686        C691   1.494       .  S
C687        C688   1.411       .  A
C687        C692   1.450       .  S
C688        C689   1.412       .  A
C688        C704   1.451       .  S
C689        C690   1.412       .  A
C690        C693   1.451       .  S
C691        C694   1.411       .  A
C691        C698   1.410       .  A
C692        N709   1.157       .  T
C693        N711   1.157       .  T
C694        C695   1.411       .  A
C694        C699   1.451       .  S
C695        C696   1.414       .  A
C695        C701   1.451       .  S
C696        C697   1.413       .  A
C697        C698   1.409       .  A
C697        C700   1.451       .  S
C698        C702   1.450       .  S
C699        N706   1.157       .  T
C700        N707   1.157       .  T
C701        N705   1.157   1_655  T
C702        N708   1.157       .  T
C703        N712   1.157       .  T
C704        N710   1.157       .  T
C713        C714   1.411       .  A
C713        C718   1.410       .  A
C713        C731   1.451       .  S
C714        C715   1.412       .  A
C714        C719   1.498       .  S
C715        C716   1.412       .  A
C715        C720   1.450       .  S
C716        C717   1.413       .  A
C716        C732   1.450       .  S
C717        C718   1.415       .  A
C718        C721   1.452       .  S
C719        C722   1.413       .  A
C719        C726   1.412       .  A
C720        N737   1.157       .  T
C721        N739   1.157       .  T
C722        C723   1.412       .  A
C722        C727   1.450       .  S
C723        C724   1.411       .  A
C723        C729   1.450       .  S
C724        C725   1.411       .  A
C725        C726   1.410       .  A
C725        C728   1.451       .  S
C726        C730   1.451       .  S
C727        N734   1.157       .  T
C728        N735   1.157       .  T
C729        N733   1.157       .  T
C730        N736   1.157       .  T
C731        N740   1.157       .  T
C732        N738   1.157       .  T
C741        C742   1.409       .  A
C741        C746   1.411       .  A
C741        C759   1.451       .  S
C742        C743   1.408       .  A
C742        C747   1.496       .  S
C743        C744   1.411       .  A
C743        C748   1.451       .  S
C744        C745   1.420       .  A
C744        C760   1.451       .  S
C745        C746   1.419       .  A
C746        C749   1.451       .  S
C747        C750   1.412       .  A
C747        C754   1.412       .  A
C748        N765   1.157       .  T
C749        N767   1.157       .  T
C750        C751   1.410       .  A
C750        C755   1.450       .  S
C751        C752   1.410       .  A
C751        C757   1.450       .  S
C752        C753   1.411       .  A
C753        C754   1.410       .  A
C753        C756   1.451       .  S
C754        C758   1.450       .  S
C755        N762   1.157       .  T
C756        N763   1.157       .  T
C757        N761   1.157       .  T
C758        N764   1.157       .  T
C759        N768   1.157       .  T
C760        N766   1.157       .  T
C769        C770   1.411       .  A
C769        C774   1.408       .  A
C769        C787   1.451       .  S
C770        C771   1.411       .  A
C770        C775   1.494       .  S
C771        C772   1.411       .  A
C771        C776   1.450       .  S
C772        C773   1.414       .  A
C772        C788   1.451       .  S
C773        C774   1.413       .  A
C774        C777   1.451       .  S
C775        C778   1.411       .  A
C775        C782   1.411       .  A
C776        N793   1.157       .  T
C777        N795   1.157       .  T
C778        C779   1.410       .  A
C778        C783   1.450       .  S
C779        C780   1.411       .  A
C779        C785   1.450       .  S
C780        C781   1.415       .  A
C781        C782   1.410       .  A
C781        C784   1.452       .  S
C782        C786   1.451       .  S
C783        N790   1.157       .  T
C784        N791   1.158       .  T
C785        N789   1.157       .  T
C786        N792   1.157       .  T
C787        N796   1.157       .  T
C788        N794   1.157       .  T
C797        C798   1.412       .  A
C797        C802   1.415       .  A
C797        C815   1.450       .  S
C798        C799   1.411       .  A
C798        C803   1.500       .  S
C799        C800   1.409       .  A
C799        C804   1.450       .  S
C800        C801   1.411       .  A
C800        C816   1.451       .  S
C801        C802   1.414       .  A
C802        C805   1.449       .  S
C803        C806   1.407       .  A
C803        C810   1.408       .  A
C804        N821   1.157       .  T
C805        N823   1.157       .  T
C806        C807   1.414       .  A
C806        C811   1.452       .  S
C807        C808   1.426       .  A
C807        C813   1.451       .  S
C808        C809   1.425       .  A
C809        C810   1.414       .  A
C809        C812   1.451       .  S
C810        C814   1.452       .  S
C811        N818   1.157       .  T
C812        N819   1.158       .  T
C813        N817   1.157       .  T
C814        N820   1.157       .  T
C815        N824   1.157       .  T
C816        N822   1.157       .  T
C825        C826   1.412       .  A
C825        C830   1.413       .  A
C825        C843   1.450       .  S
C826        C827   1.411       .  A
C826        C831   1.503   1_545  S
C827        C828   1.415       .  A
C827        C832   1.450       .  S
C828        C829   1.416       .  A
C828        C844   1.450       .  S
C829        C830   1.414       .  A
C830        C833   1.451       .  S
C831        C834   1.412       .  A
C831        C838   1.412       .  A
C832        N849   1.157       .  T
C833        N851   1.157       .  T
C834        C835   1.415       .  A
C834        C839   1.450   1_565  S
C835        C836   1.413       .  A
C835        C841   1.450       .  S
C836        C837   1.413       .  A
C837        C838   1.413       .  A
C837        C840   1.451       .  S
C838        C842   1.450       .  S
C839        N846   1.157       .  T
C840        N847   1.157       .  T
C841        N845   1.157       .  T
C842        N848   1.157       .  T
C843        N852   1.157       .  T
C844        N850   1.157       .  T
C853        C854   1.412       .  A
C853        C858   1.412       .  A
C853        C871   1.451       .  S
C854        C855   1.410       .  A
C854        C859   1.498       .  S
C855        C856   1.411       .  A
C855        C860   1.450       .  S
C856        C857   1.414       .  A
C856        C872   1.451       .  S
C857        C858   1.412       .  A
C858        C861   1.450       .  S
C859        C862   1.411       .  A
C859        C866   1.411       .  A
C860        N877   1.157       .  T
C861        N879   1.157       .  T
C862        C863   1.412       .  A
C862        C867   1.451       .  S
C863        C864   1.415       .  A
C863        C869   1.451       .  S
C864        C865   1.414       .  A
C865        C866   1.411       .  A
C865        C868   1.451       .  S
C866        C870   1.450       .  S
C867        N874   1.157       .  T
C868        N875   1.157       .  T
C869        N873   1.157       .  T
C870        N876   1.157       .  T
C871        N880   1.157       .  T
C872        N878   1.157       .  T
C881        C882   1.410       .  A
C881        C886   1.412       .  A
C881        C899   1.451       .  S
C882        C883   1.410       .  A
C882        C887   1.498       .  S
C883        C884   1.413       .  A
C883        C888   1.451       .  S
C884        C885   1.417       .  A
C884        C900   1.449       .  S
C885        C886   1.418       .  A
C886        C889   1.451       .  S
C887        C890   1.413       .  A
C887        C894   1.413       .  A
C888        N905   1.157       .  T
C889        N907   1.157       .  T
C890        C891   1.411       .  A
C890        C895   1.450       .  S
C891        C892   1.410   1_556  A
C891        C897   1.451   1_556  S
C892        C893   1.410       .  A
C893        C894   1.410   1_554  A
C893        C896   1.451       .  S
C894        C898   1.450       .  S
C895        N902   1.157       .  T
C896        N903   1.157       .  T
C897        N901   1.157       .  T
C898        N904   1.157       .  T
C899        N908   1.157       .  T
C900        N906   1.157       .  T
