geometry optimzed in LAMMPS
_audit_creation_date              2020-11-30 
_audit_creation_method            'lammps2cif' 
_symmetry_space_group_name_H-M    'P1' 
_symmetry_Int_Tables_number       1 
_symmetry_cell_setting            triclinic 
loop_ 
_symmetry_equiv_pos_as_xyz 
  x,y,z 
_cell_length_a                    25.8607847 
_cell_length_b                    49.30652852702428 
_cell_length_c                    32.102299934188586 
_cell_angle_alpha                 88.97873618676577 
_cell_angle_beta                  88.90629726598183 
_cell_angle_gamma                 90.62339842173019 
loop_ 
_atom_site_label 
_atom_site_type_symbol 
_atom_site_fract_x 
_atom_site_fract_y 
_atom_site_fract_z 
_atom_site_charge 
O1          O  0.40576115  0.18647638  0.06420974    -0.74800
O2          O  0.44855125  0.21150675  0.11165116    -0.53700
C3          C  0.41916410  0.19201466  0.10131982     0.79000
O4          O  0.56956014  0.17934315  0.42046461    -0.59400
O5          O  0.53727854  0.21119797  0.37631255    -0.52400
C6          C  0.56060048  0.18888445  0.38381844     0.71000
O7          O  0.58183971  0.17598359  0.05876432    -0.73900
O8          O  0.54953092  0.20324968  0.10957266    -0.54500
C9          C  0.57490697  0.18280206  0.09680074     0.77000
O10         O  0.37905224  0.20401926  0.43040989    -0.59100
O11         O  0.43270360  0.22451902  0.38207747    -0.52200
C12         C  0.39373223  0.20944349  0.39275168     0.73600
Zr13       Zr  0.40985861  0.21264576  0.99978000     2.54700
O14         O  0.36114309  0.17037426  0.99410338    -0.79600
O15         O  0.32348545  0.23559673  0.51131362    -0.93000
Zr16       Zr  0.56009436  0.19414762  0.99107416     2.64700
O17         O  0.53928860  0.14580004  0.99282493    -0.98000
O18         O  0.64625414  0.17951692  0.48923259    -0.80100
O19         O  0.48699423  0.20138359  0.03435787    -0.83400
O20         O  0.47992665  0.20430247  0.45660870    -2.18100
O21         O  0.42711823  0.30706370  0.43496639    -0.66800
O22         O  0.46305452  0.28167828  0.38334876    -0.51400
C23         C  0.43561139  0.30120516  0.39650941     0.72000
O24         O  0.61805499  0.28468852  0.06616603    -0.59700
O25         O  0.56864050  0.26293998  0.11587734    -0.51700
C26         C  0.60529629  0.27911094  0.10436640     0.73800
O27         O  0.62093528  0.28717931  0.42688866    -0.71100
O28         O  0.56699536  0.26836139  0.37964922    -0.49800
C29         C  0.60495708  0.28357448  0.38976171     0.75100
O30         O  0.43558061  0.30377473  0.07730738    -0.66400
O31         O  0.46592560  0.27126780  0.12139281    -0.53600
C32         C  0.44320875  0.29382855  0.11416215     0.73500
Zr33       Zr  0.45212046  0.29220771  0.50449101     2.77500
O34         O  0.47245534  0.33819043  0.00673242    -0.97200
O35         O  0.36382767  0.30845939  0.51130370    -0.78000
Zr36       Zr  0.59880770  0.27018563  0.49643568     2.70100
O37         O  0.64158300  0.31435467  0.49843343    -0.79300
O38         O  0.68279834  0.25410054  0.99086736    -0.98300
Zr39       Zr  0.50698549  0.23972665  0.07467222     2.21500
Zr40       Zr  0.50128563  0.24525798  0.42039549     2.11100
O41         O  0.52412661  0.28382395  0.46025857    -2.47000
O42         O  0.52106194  0.27603835  0.03276517    -0.79100
O43         O  0.42676938  0.25577221  0.46147688    -0.71200
O44         O  0.58264862  0.23141010  0.03375242    -2.32200
O45         O  0.42694726  0.25014900  0.04307502    -2.28400
O46         O  0.57898307  0.23284544  0.45372669    -0.73000
H47         H  0.47152533  0.18975163  0.43820196     0.79000
H48         H  0.61231128  0.22759356  0.05062717     0.80100
H49         H  0.53063568  0.29966138  0.44313554     0.82300
H50         H  0.39986683  0.25255912  0.06310997     0.79900
H51         H  0.66228572  0.19282676  0.95585853     0.42900
H52         H  0.70087919  0.25645544  0.46970945     0.41900
H53         H  0.66956818  0.31574944  0.99319223     0.41600
H54         H  0.51312071  0.33828262  0.52586909     0.39500
H55         H  0.34943649  0.29916192  0.53661314     0.42700
H56         H  0.30889419  0.21780349  0.03564258     0.37400
H57         H  0.38787068  0.15634878  0.99029803     0.43600
H58         H  0.50937857  0.14354153  0.46484737     0.40000
H59         H  0.50363384  0.34136043  0.47799207     0.44900
H60         H  0.30604540  0.23015466  0.99045964     0.43600
H61         H  0.51646529  0.14306688  0.96880621     0.43800
H62         H  0.70262085  0.25840604  0.51830118     0.44100
O63         O  0.39366005  0.45256943  0.06813933    -0.74800
O64         O  0.44435183  0.47210307  0.11685370    -0.53700
C65         C  0.40383456  0.45883155  0.10603549     0.79000
O66         O  0.61839439  0.44840412  0.42398723    -0.59400
O67         O  0.57073796  0.46932936  0.37422350    -0.52400
C68         C  0.60837095  0.45405171  0.38550219     0.71000
O69         O  0.61478706  0.44418380  0.06447276    -0.73900
O70         O  0.56801564  0.46568840  0.11507581    -0.54500
C71         C  0.60445264  0.44973280  0.10283824     0.77000
O72         O  0.39823642  0.44900262  0.42791310    -0.59100
O73         O  0.45102762  0.46783410  0.37709308    -0.52200
C74         C  0.41144776  0.45329544  0.38937991     0.73600
Zr75       Zr  0.42922657  0.45957730  0.99722325     2.54700
O76         O  0.43295506  0.41027452  0.99968637    -0.79600
O77         O  0.33938750  0.45042971  0.49323653    -0.93000
Zr78       Zr  0.58100329  0.45472431  0.99506060     2.64700
O79         O  0.56374479  0.40602883  0.99512522    -0.98000
O80         O  0.67510365  0.44472065  0.49274611    -0.80100
O81         O  0.50499861  0.45617386  0.03819886    -0.83400
O82         O  0.50798326  0.45631352  0.45423867    -2.18100
O83         O  0.40086057  0.04367957  0.42994296    -0.66800
O84         O  0.44757941  0.02366945  0.37791564    -0.51400
C85         C  0.40933826  0.03786648  0.39147120     0.72000
O86         O  0.62644698  0.04587992  0.06252203    -0.59700
O87         O  0.57596701  0.02484607  0.11261931    -0.51700
C88         C  0.61440037  0.04044746  0.10082448     0.73800
O89         O  0.63017188  0.04064119  0.42673459    -0.71100
O90         O  0.58084871  0.02269903  0.37598980    -0.49800
C91         C  0.62132571  0.03578002  0.38849247     0.75100
O92         O  0.40278993  0.04563644  0.06732261    -0.66400
O93         O  0.45116228  0.02385661  0.11609723    -0.53600
C94         C  0.41229923  0.03866626  0.10555631     0.73500
Zr95       Zr  0.44149381  0.03926876  0.49773901     2.77500
O96         O  0.47768125  0.08570266  0.99553996    -0.97200
O97         O  0.35973253  0.06155289  0.99730130    -0.78000
Zr98       Zr  0.59195826  0.03433880  0.49515444     2.70100
O99         O  0.59213524  0.08352271  0.48818274    -0.79300
O100        O  0.68723842  0.02792615  0.99652397    -0.98300
Zr101      Zr  0.51079169  0.49700568  0.07794042     2.21500
Zr102      Zr  0.51131008  0.49769637  0.41400861     2.11100
O103        O  0.51672487  0.03775159  0.45370812    -2.47000
O104        O  0.51878240  0.03759503  0.03784402    -0.79100
O105        O  0.43538189  0.49904396  0.45767666    -0.71200
O106        O  0.58656477  0.49452813  0.03526806    -2.32200
O107        O  0.43444619  0.49941967  0.03700144    -2.28400
O108        O  0.58697789  0.49659203  0.45510549    -0.73000
H109        H  0.50692473  0.44065508  0.43643021     0.79000
H110        H  0.61726290  0.49385767  0.05186277     0.80100
H111        H  0.51883533  0.05336003  0.43543828     0.82300
H112        H  0.40340973  0.50006811  0.05359537     0.79900
H113        H  0.68949485  0.46414065  0.99909231     0.42900
H114        H  0.69746586  0.02062848  0.47804758     0.41900
H115        H  0.63313195  0.08772017  0.99410486     0.41600
H116        H  0.43869957  0.09674882  0.48657471     0.39500
H117        H  0.33157136  0.04144037  0.50055558     0.42700
H118        H  0.32365005  0.47253011  0.01498267     0.37400
H119        H  0.43413230  0.40550969  0.02974550     0.43600
H120        H  0.57687833  0.40084307  0.46927009     0.40000
H121        H  0.47844192  0.09128778  0.52180484     0.44900
H122        H  0.32469839  0.44103020  0.00882007     0.43600
H123        H  0.54471586  0.40268474  0.96921626     0.43800
H124        H  0.69820475  0.04948373  0.49813723     0.44100
O125        O  0.92514086  0.30898397  0.06508264    -0.74800
O126        O  0.96376133  0.28232975  0.11397615    -0.53700
C127        C  0.93639174  0.30294909  0.10313606     0.79000
O128        O  0.91205762  0.19136818  0.43117359    -0.59400
O129        O  0.95601486  0.21372854  0.37838044    -0.52400
C130        C  0.92348220  0.19560989  0.39221139     0.71000
O131        O  0.91096733  0.19323586  0.07145198    -0.73900
O132        O  0.95420292  0.21900694  0.11826757    -0.54500
C133        C  0.92285310  0.19955343  0.10901028     0.77000
O134        O  0.91800288  0.30352178  0.42566094    -0.59100
O135        O  0.95850546  0.27816002  0.37603121    -0.52200
C136        C  0.92798872  0.29726391  0.38756689     0.73600
Zr137      Zr  0.93974847  0.28898612  0.99590413     2.54700
O138        O  0.84613089  0.28329492  0.00071574    -0.79600
O139        O  0.94207571  0.33827985  0.48807092    -0.93000
Zr140      Zr  0.93021036  0.20927353  0.99964596     2.64700
O141        O  0.83740671  0.21710553  0.00145806    -0.98000
O142        O  0.90872656  0.16142936  0.50312382    -0.80100
O143        O  0.93418097  0.24957702  0.03958099    -0.83400
O144        O  0.93440029  0.24870367  0.45647653    -2.18100
O145        O  0.10812854  0.30207719  0.41739408    -0.66800
O146        O  0.06799293  0.27464160  0.37113766    -0.51400
C147        C  0.09738328  0.29490076  0.37984370     0.72000
O148        O  0.10047164  0.18950557  0.06660645    -0.59700
O149        O  0.06132761  0.21437445  0.11729632    -0.51700
C150        C  0.09007310  0.19467587  0.10519755     0.73800
O151        O  0.09895243  0.18499376  0.42565149    -0.71100
O152        O  0.06228902  0.21214329  0.37639497    -0.49800
C153        C  0.08891905  0.19128215  0.38737875     0.75100
O154        O  0.11789171  0.30177968  0.05963829    -0.66400
O155        O  0.07245830  0.27943992  0.11189974    -0.53600
C156        C  0.10603182  0.29732187  0.09854346     0.73500
Zr157      Zr  0.09496784  0.28505098  0.49018996     2.77500
O158        O  0.18621872  0.27362461  0.48531607    -0.97200
O159        O  0.11087837  0.33374812  0.98835291    -0.78000
Zr160      Zr  0.08518913  0.20516193  0.49512187     2.70100
O161        O  0.17907607  0.20938415  0.49103171    -0.79300
O162        O  0.09114979  0.15617148  0.00312103    -0.98300
Zr163      Zr  0.01350432  0.24820380  0.07681234     2.21500
Zr164      Zr  0.01153829  0.24567864  0.41425469     2.11100
O165        O  0.09082347  0.24448195  0.45131703    -2.47000
O166        O  0.09080287  0.24561131  0.03442223    -0.79100
O167        O  0.01676273  0.28661665  0.45292814    -0.71200
O168        O  0.00789602  0.20762324  0.03716956    -2.32200
O169        O  0.01798680  0.28795720  0.03288401    -2.28400
O170        O  0.00720454  0.20598890  0.45771249    -0.73000
H171        H  0.90397942  0.24917681  0.43927535     0.79000
H172        H  0.00608487  0.19167123  0.05519210     0.80100
H173        H  0.12058236  0.24338988  0.43201616     0.82300
H174        H  0.02051338  0.30423952  0.04903939     0.79900
H175        H  0.94814249  0.15313568  0.98671939     0.42900
H176        H  0.06506814  0.14877869  0.48289109     0.41900
H177        H  0.19093477  0.19408999  0.00494281     0.41600
H178        H  0.20301133  0.28981919  0.47206467     0.39500
H179        H  0.08568457  0.34238351  0.48165974     0.42700
H180        H  0.95804075  0.34546726  0.00927233     0.37400
H181        H  0.83636154  0.28984544  0.02872769     0.43600
H182        H  0.82458295  0.20904530  0.48020180     0.40000
H183        H  0.19809525  0.27367861  0.51445642     0.44900
H184        H  0.89910658  0.34247003  0.99898807     0.43600
H185        H  0.83086239  0.22627981  0.02820458     0.43800
H186        H  0.12462218  0.15139901  0.49098942     0.44100
C187        C  0.26815134  0.11819624  0.20930779     0.46000
H188        H  0.27366814  0.11564445  0.17587422    -0.03000
C189        C  0.25654934  0.12146794  0.28837236     0.46000
H190        H  0.25094555  0.12235690  0.32272082    -0.03000
C191        C  0.30547201  0.13857534  0.22888424    -0.16700
C192        C  0.21392323  0.12914531  0.22143240    -0.16500
C193        C  0.28118701  0.09121454  0.23158381    -0.16900
C194        C  0.29897430  0.14095379  0.27117851    -0.16800
C195        C  0.20774249  0.13031534  0.26460529    -0.16400
C196        C  0.27538393  0.09303198  0.27450909    -0.16700
C197        C  0.75224378  0.12650098  0.20804859     0.46000
H198        H  0.75764171  0.12654313  0.17371000    -0.03000
C199        C  0.74094360  0.12604098  0.28748128     0.46000
H200        H  0.73534743  0.12639182  0.32139082    -0.03000
C201        C  0.70766329  0.14403471  0.22253047    -0.16700
C202        C  0.73605333  0.09809235  0.22559909    -0.16500
C203        C  0.79967080  0.13826777  0.23116523    -0.16900
C204        C  0.69990744  0.14343660  0.26506310    -0.16800
C205        C  0.73681113  0.09700830  0.26865320    -0.16400
C206        C  0.79307573  0.13853274  0.27391550    -0.16700
C207        C  0.28194324  0.37067233  0.20659041     0.46000
H208        H  0.28996233  0.37046889  0.17259626    -0.03000
C209        C  0.26477209  0.36973866  0.28595863     0.46000
H210        H  0.25699861  0.36965992  0.32000708    -0.03000
C211        C  0.32255307  0.35423438  0.23064854    -0.16700
C212        C  0.28372842  0.39943097  0.22637667    -0.16500
C213        C  0.22926883  0.35737786  0.21860454    -0.16900
C214        C  0.31185986  0.35281582  0.27287968    -0.16800
C215        C  0.27841153  0.39866730  0.26960178    -0.16400
C216        C  0.21949096  0.35773941  0.26075182    -0.16700
C217        C  0.75151332  0.36528597  0.28350819     0.46000
H218        H  0.74768681  0.36439738  0.31772113    -0.03000
C219        C  0.75826632  0.36581555  0.20378686     0.46000
H220        H  0.76133005  0.36778632  0.16970668    -0.03000
C221        C  0.71832174  0.34299174  0.26327759    -0.16700
C222        C  0.73281105  0.39254106  0.26489997    -0.16500
C223        C  0.80688114  0.35916406  0.26800124    -0.16900
C224        C  0.72281985  0.34273183  0.22019249    -0.16800
C225        C  0.73323479  0.39173152  0.22174218    -0.16400
C226        C  0.81077726  0.35962650  0.22491605    -0.16700
C227        C  0.14509457  0.34879711  0.18166048    -0.11700
C228        C  0.19698043  0.34197485  0.18797400     0.05300
C229        C  0.21742235  0.32019094  0.16500053    -0.07000
C230        C  0.18711959  0.30630758  0.13626159    -0.07800
C231        C  0.13551677  0.31298939  0.12995343    -0.02300
C232        C  0.11441537  0.33455437  0.15310045     0.04500
N233        N  0.06290278  0.34333148  0.14644281     0.67000
H234        H  0.12839759  0.36545763  0.19867238     0.15900
H235        H  0.20384303  0.28954972  0.11944714     0.15600
N236        N  0.26749392  0.31003476  0.17300389     0.74700
O237        O  0.02711176  0.33462647  0.17053127    -0.38700
O238        O  0.05629517  0.36490567  0.12563367    -0.38700
O239        O  0.27255562  0.29411996  0.20381908    -0.39400
O240        O  0.30035996  0.30964953  0.14346493    -0.39500
C241        C  0.17029067  0.31450890  0.27864677    -0.11700
C242        C  0.17630435  0.34264283  0.28304665     0.05300
C243        C  0.14848260  0.35532812  0.31512245    -0.07000
C244        C  0.12266405  0.33964441  0.34631283    -0.07800
C245        C  0.12061084  0.31116884  0.34424737    -0.02300
C246        C  0.14175898  0.29882955  0.30830881     0.04500
N247        N  0.13868580  0.27014057  0.30320340     0.67000
H248        H  0.19096797  0.30426160  0.25403270     0.15900
H249        H  0.10397221  0.34974671  0.37214117     0.15600
N250        N  0.14669166  0.38425138  0.31617711     0.74700
O251        O  0.10389957  0.26039765  0.28065003    -0.38700
O252        O  0.17675669  0.25567403  0.31277214    -0.38700
O253        O  0.13126774  0.39751826  0.28486378    -0.39400
O254        O  0.16514320  0.39663692  0.34661155    -0.39500
C255        C  0.14501261  0.13188122  0.32488810    -0.11700
C256        C  0.16723695  0.14540714  0.28975214     0.05300
C257        C  0.15947186  0.17388096  0.28637420    -0.07000
C258        C  0.13005620  0.18741253  0.31676634    -0.07800
C259        C  0.11154226  0.17429057  0.35317811    -0.02300
C260        C  0.11853652  0.14592939  0.35665957     0.04500
N261        N  0.09983831  0.13099830  0.39246852     0.67000
H262        H  0.15115173  0.11030088  0.32908112     0.15900
H263        H  0.12606399  0.20916364  0.31365693     0.15600
N264        N  0.18871228  0.19060557  0.25777015     0.74700
O265        O  0.05558762  0.12001186  0.39180438    -0.38700
O266        O  0.13155435  0.12316590  0.41939622    -0.38700
O267        O  0.16667392  0.19963508  0.22576412    -0.39400
O268        O  0.22435388  0.20480182  0.27284558    -0.39500
C269        C  0.16943615  0.17290630  0.12692585    -0.11700
C270        C  0.11782010  0.17759778  0.13635089     0.05300
C271        C  0.09567588  0.16428012  0.17189751    -0.07000
C272        C  0.12653384  0.14719936  0.19725009    -0.07800
C273        C  0.18026363  0.14389943  0.18934723    -0.02300
C274        C  0.20055769  0.15665239  0.15173121     0.04500
N275        N  0.25236128  0.15421886  0.13626428     0.67000
H276        H  0.18678156  0.18235608  0.09914165     0.15900
H277        H  0.10837492  0.13711934  0.22401864     0.15600
N278        N  0.04236015  0.16770271  0.18280412     0.74700
O279        O  0.26143607  0.13537233  0.11110846    -0.38700
O280        O  0.27841132  0.17585440  0.13150745    -0.38700
O281        O  0.01223431  0.14739361  0.18334699    -0.39400
O282        O  0.02855320  0.18899283  0.20097645    -0.39500
C283        C  0.86344033  0.14043761  0.17260693    -0.11700
C284        C  0.84007002  0.15373455  0.20610878     0.05300
C285        C  0.84902623  0.18206484  0.20989625    -0.07000
C286        C  0.87914708  0.19625189  0.17942260    -0.07800
C287        C  0.89844996  0.18320263  0.14391452    -0.02300
C288        C  0.89157581  0.15478076  0.14145891     0.04500
N289        N  0.91130614  0.14011507  0.10678398     0.67000
H290        H  0.85707994  0.11882796  0.16916414     0.15900
H291        H  0.88373375  0.21804499  0.18176762     0.15600
N292        N  0.82345786  0.19732809  0.24153393     0.74700
O293        O  0.95375094  0.12796832  0.11011553    -0.38700
O294        O  0.88062734  0.13312782  0.07872932    -0.38700
O295        O  0.84853447  0.21420945  0.26252692    -0.39400
O296        O  0.77489241  0.19649469  0.24493158    -0.39500
C297        C  0.88174500  0.15225118  0.29986244    -0.11700
C298        C  0.82745192  0.15271328  0.30475753     0.05300
C299        C  0.80673514  0.16698981  0.33945420    -0.07000
C300        C  0.83949631  0.17943489  0.36762033    -0.07800
C301        C  0.89303570  0.17990832  0.36176349    -0.02300
C302        C  0.91440908  0.16624501  0.32721587     0.04500
N303        N  0.96900201  0.16571889  0.31990925     0.67000
H304        H  0.89907155  0.14125624  0.27435150     0.15900
H305        H  0.82235168  0.19038033  0.39335133     0.15600
N306        N  0.75272059  0.17182438  0.34498607     0.74700
O307        O  0.99320844  0.14431406  0.32839135    -0.38700
O308        O  0.98956618  0.18307538  0.29525492    -0.38700
O309        O  0.72990654  0.16267066  0.37749079    -0.39400
O310        O  0.73359933  0.19187677  0.32617688    -0.39500
C311        C  0.81761929  0.32585511  0.32661043    -0.11700
C312        C  0.84172377  0.34395718  0.29753663     0.05300
C313        C  0.89648371  0.34618742  0.29803125    -0.07000
C314        C  0.92483851  0.33004091  0.32633854    -0.07800
C315        C  0.89943496  0.31247632  0.35534045    -0.02300
C316        C  0.84531293  0.31087928  0.35549599     0.04500
N317        N  0.81746473  0.29376454  0.38474351     0.67000
H318        H  0.77640542  0.32256187  0.32714983     0.15900
H319        H  0.96659711  0.33202887  0.32677594     0.15600
N320        N  0.92375399  0.36550916  0.27194223     0.74700
O321        O  0.79502397  0.30427694  0.41564715    -0.38700
O322        O  0.80510155  0.27000132  0.37454609    -0.38700
O323        O  0.92818063  0.38961937  0.28402513    -0.39400
O324        O  0.95441968  0.35719983  0.24403342    -0.39500
C325        C  0.89974628  0.30658634  0.17479199    -0.11700
C326        C  0.91403879  0.31978624  0.13733380     0.05300
C327        C  0.90133631  0.34751729  0.13253649    -0.07000
C328        C  0.87180196  0.36052096  0.16354866    -0.07800
C329        C  0.85258425  0.34637670  0.19907529    -0.02300
C330        C  0.86728605  0.31882943  0.20429831     0.04500
N331        N  0.84078848  0.30086209  0.23272917     0.67000
H332        H  0.90777101  0.28516712  0.17882979     0.15900
H333        H  0.86118170  0.38151813  0.15857299     0.15600
N334        N  0.91736513  0.36281943  0.09630603     0.74700
O335        O  0.80324512  0.28775884  0.21843268    -0.38700
O336        O  0.86624659  0.28990638  0.26150395    -0.38700
O337        O  0.88394722  0.36972665  0.07017109    -0.39400
O338        O  0.95985878  0.37558225  0.09660604    -0.39500
C339        C  0.73374698  0.07672176  0.33995402    -0.11700
C340        C  0.72567421  0.07291769  0.29760862     0.05300
C341        C  0.69937643  0.04871791  0.28716833    -0.07000
C342        C  0.66388054  0.03706118  0.31670566    -0.07800
C343        C  0.66135102  0.04646724  0.35786346    -0.02300
C344        C  0.70100648  0.06479465  0.36993155     0.04500
N345        N  0.70846749  0.07251174  0.41206360     0.67000
H346        H  0.76314968  0.09076597  0.35019356     0.15900
H347        H  0.63996036  0.02005972  0.30824916     0.15600
N348        N  0.71383923  0.03391534  0.25066105     0.74700
O349        O  0.74495217  0.06178908  0.43175017    -0.38700
O350        O  0.69197003  0.09521721  0.42358294    -0.38700
O351        O  0.75984077  0.03531391  0.23677663    -0.39400
O352        O  0.68340687  0.01650215  0.23593960    -0.39500
C353        C  0.62303769  0.05961550  0.17166602    -0.11700
C354        C  0.64644815  0.05354782  0.13352755     0.05300
C355        C  0.69917268  0.06078912  0.12735096    -0.07000
C356        C  0.72655322  0.07385977  0.15882823    -0.07800
C357        C  0.70334026  0.08053240  0.19723335    -0.02300
C358        C  0.64953996  0.07302756  0.20345371     0.04500
N359        N  0.62020133  0.07775575  0.24112082     0.67000
H360        H  0.58245292  0.05453007  0.17634183     0.15900
H361        H  0.76682528  0.07920229  0.15283374     0.15600
N362        N  0.72612602  0.05489355  0.08940524     0.74700
O363        O  0.62953649  0.09784093  0.26312064    -0.38700
O364        O  0.58124382  0.06308994  0.25070154    -0.38700
O365        O  0.73394009  0.07366379  0.06272645    -0.39400
O366        O  0.75317950  0.03380388  0.08763161    -0.39500
C367        C  0.39658594  0.05389753  0.17905529    -0.11700
C368        C  0.37637018  0.04819770  0.14000372     0.05300
C369        C  0.32259723  0.05193860  0.13515017    -0.07000
C370        C  0.29192340  0.06285547  0.16767651    -0.07800
C371        C  0.31297638  0.07108615  0.20577895    -0.02300
C372        C  0.36657844  0.06556440  0.21118152     0.04500
N373        N  0.39452895  0.07535122  0.24553027     0.67000
H374        H  0.43760912  0.05121129  0.18388366     0.15900
H375        H  0.25140952  0.06655113  0.16196736     0.15600
N376        N  0.29807512  0.04472687  0.09741348     0.74700
O377        O  0.41856672  0.09746648  0.23995781    -0.38700
O378        O  0.41318988  0.05811531  0.27038810    -0.38700
O379        O  0.27813669  0.51950548  0.09978097    -0.39400
O380        O  0.28723814  0.06312523  0.07130590    -0.39500
C381        C  0.33939796  0.03531800  0.33705668    -0.11700
C382        C  0.37405695  0.05053536  0.36120936     0.05300
C383        C  0.37203096  0.07890026  0.35904799    -0.07000
C384        C  0.33973475  0.09160041  0.33108746    -0.07800
C385        C  0.30654077  0.07706243  0.30525302    -0.02300
C386        C  0.30463263  0.04854932  0.30989714     0.04500
N387        N  0.26497527  0.03329380  0.29026866     0.67000
H388        H  0.33814369  0.01342632  0.34033374     0.15900
H389        H  0.34180234  0.11329285  0.32997978     0.15600
N390        N  0.40334588  0.09542129  0.38483986     0.74700
O391        O  0.27508679  0.02032102  0.25766414    -0.38700
O392        O  0.21868598  0.03516405  0.30300494    -0.38700
O393        O  0.44630001  0.10409563  0.37070915    -0.39400
O394        O  0.38254110  0.10712640  0.41540168    -0.39500
C395        C  0.61486372  0.41587296  0.16022475    -0.11700
C396        C  0.63681711  0.43631903  0.13485550     0.05300
C397        C  0.68996904  0.44234746  0.13874087    -0.07000
C398        C  0.71990847  0.42821480  0.16801459    -0.07800
C399        C  0.69818577  0.40761171  0.19364061    -0.02300
C400        C  0.64460948  0.40104577  0.18879253     0.04500
N401        N  0.61873980  0.37993302  0.21262268     0.67000
H402        H  0.57411894  0.41102145  0.15727092     0.15900
H403        H  0.76065003  0.43320055  0.17041288     0.15600
N404        N  0.71385207  0.46350072  0.11417785     0.74700
O405        O  0.61443235  0.38194574  0.25161326    -0.38700
O406        O  0.58715037  0.36471088  0.19439905    -0.38700
O407        O  0.72388948  0.48577288  0.13110032    -0.39400
O408        O  0.73583944  0.45787474  0.08004039    -0.39500
C409        C  0.66609594  0.43008355  0.28089713    -0.11700
C410        C  0.70759896  0.41363747  0.29353447     0.05300
C411        C  0.72121762  0.41555299  0.33617735    -0.07000
C412        C  0.68849879  0.42860586  0.36493078    -0.07800
C413        C  0.64319485  0.44187629  0.35265780    -0.02300
C414        C  0.63373764  0.44349868  0.30942538     0.04500
N415        N  0.59036296  0.45774865  0.29338380     0.67000
H416        H  0.65614773  0.43251615  0.24899129     0.15900
H417        H  0.69969964  0.42883224  0.39726907     0.15600
N418        N  0.77056089  0.40685106  0.35044033     0.74700
O419        O  0.59671606  0.48176568  0.28001981    -0.38700
O420        O  0.55203942  0.44430374  0.28105225    -0.38700
O421        O  0.81004251  0.42110734  0.34106455    -0.39400
O422        O  0.77269807  0.39014495  0.38061670    -0.39500
C423        C  0.36426529  0.40850447  0.30144424    -0.11700
C424        C  0.31185425  0.41554382  0.29796386     0.05300
C425        C  0.29302124  0.43611606  0.32432471    -0.07000
C426        C  0.32608578  0.44818716  0.35364576    -0.07800
C427        C  0.37811408  0.44048511  0.35731904    -0.02300
C428        C  0.39690963  0.42019248  0.33084285     0.04500
N429        N  0.44782597  0.40963321  0.33537583     0.67000
H430        H  0.38017893  0.39354941  0.28099745     0.15900
H431        H  0.31113252  0.46398322  0.37343282     0.15600
N432        N  0.24141116  0.44585235  0.32090351     0.74700
O433        O  0.45855931  0.39668683  0.36830449    -0.38700
O434        O  0.47654190  0.40712848  0.30350547    -0.38700
O435        O  0.21347589  0.44763721  0.35339013    -0.39400
O436        O  0.22946562  0.45929294  0.28875265    -0.39500
C437        C  0.31903087  0.43770259  0.12748926    -0.11700
C438        C  0.36557271  0.45025928  0.13904435     0.05300
C439        C  0.37425658  0.45371862  0.18197260    -0.07000
C440        C  0.34157319  0.44082225  0.21146608    -0.07800
C441        C  0.30156407  0.42321433  0.19937182    -0.02300
C442        C  0.28677881  0.42459737  0.15721127     0.04500
N443        N  0.23915833  0.41274172  0.14405999     0.67000
H444        H  0.30843274  0.43699494  0.09504036     0.15900
H445        H  0.35205165  0.44321608  0.24320152     0.15600
N446        N  0.41852927  0.46803413  0.19662542     0.74700
O447        O  0.19740430  0.42478863  0.15197028    -0.38700
O448        O  0.23978445  0.39481562  0.11647101    -0.38700
O449        O  0.41288216  0.49131370  0.21164767    -0.39400
O450        O  0.45927478  0.45509113  0.20405770    -0.39500
C451        C  0.35329456  0.31558193  0.37063534    -0.11700
C452        C  0.40682700  0.31607952  0.36556973     0.05300
C453        C  0.42983402  0.32781182  0.32947031    -0.07100
C454        C  0.39861106  0.34078206  0.30060430    -0.07800
C455        C  0.34436093  0.33935677  0.30455227    -0.02300
C456        C  0.32192236  0.32593426  0.33982054     0.04500
N457        N  0.26827704  0.31916326  0.34264709     0.67000
H458        H  0.33544657  0.30504092  0.39727556     0.15900
H459        H  0.41725789  0.35120205  0.27438946     0.15600
N460        N  0.48411694  0.32601726  0.32084056     0.74700
O461        O  0.25473752  0.29606439  0.33029480    -0.38700
O462        O  0.24080606  0.33036736  0.37017531    -0.38700
O463        O  0.50106452  0.30506629  0.30341186    -0.39400
O464        O  0.51088123  0.34753913  0.31852165    -0.39500
C465        C  0.42014295  0.33780310  0.14536187    -0.11700
C466        C  0.42337249  0.30961737  0.15006442     0.05300
C467        C  0.40410531  0.29747851  0.18761817    -0.07000
C468        C  0.37592829  0.31298385  0.21617424    -0.07800
C469        C  0.36622764  0.34045712  0.20817829    -0.02300
C470        C  0.39316428  0.35332904  0.17453356     0.04500
N471        N  0.39618405  0.38218161  0.17093169     0.67000
H472        H  0.43850100  0.34783231  0.11855512     0.15900
H473        H  0.35728425  0.30271172  0.24260184     0.15600
N474        N  0.40488405  0.26890104  0.19446185     0.74700
O475        O  0.41110374  0.39540017  0.20183949    -0.38700
O476        O  0.39800275  0.39333236  0.13524774    -0.38700
O477        O  0.44225814  0.25862456  0.21364589    -0.39400
O478        O  0.36225056  0.25628990  0.19441745    -0.39500
C479        C  0.65537458  0.28399382  0.32468497    -0.11700
C480        C  0.63116963  0.29847668  0.35621217     0.05300
C481        C  0.63235010  0.32690105  0.35529962    -0.07000
C482        C  0.65603117  0.34042254  0.32166979    -0.07800
C483        C  0.68392035  0.32623065  0.29116256    -0.02300
C484        C  0.68414334  0.29748054  0.29339933     0.04500
N485        N  0.71820418  0.28156953  0.26876625     0.67000
H486        H  0.65539432  0.26199333  0.32624978     0.15900
H487        H  0.65601297  0.36238853  0.32133798     0.15600
N488        N  0.61363751  0.34223292  0.38976510     0.74700
O489        O  0.75497678  0.27002095  0.28705024    -0.38700
O490        O  0.70118900  0.27103784  0.23616604    -0.38700
O491        O  0.64516735  0.34990261  0.41678553    -0.39400
O492        O  0.56988806  0.35319818  0.38817208    -0.39500
C493        C  0.68588334  0.30068335  0.12570662    -0.11700
C494        C  0.63563004  0.29254429  0.13647697     0.05300
C495        C  0.61532116  0.29914371  0.17594601    -0.07000
C496        C  0.64412811  0.31551789  0.20212076    -0.07800
C497        C  0.69458971  0.32440623  0.19127145    -0.02300
C498        C  0.71555739  0.31625611  0.15204475     0.04500
N499        N  0.76682597  0.32259772  0.13736589     0.67000
H500        H  0.70272438  0.29507442  0.09590963     0.15900
H501        H  0.62544121  0.32183303  0.23059431     0.15600
N502        N  0.56477514  0.29057832  0.18949716     0.74700
O503        O  0.79808144  0.30319890  0.13535281    -0.38700
O504        O  0.77222611  0.34150000  0.11052283    -0.38700
O505        O  0.56012010  0.26999085  0.21325368    -0.39400
O506        O  0.52844957  0.30739119  0.18811842    -0.39500
C507        C  0.59702252  0.18993091  0.31213428    -0.11700
C508        C  0.58305080  0.17463872  0.34793884     0.05300
C509        C  0.59905888  0.14756354  0.35105039    -0.07000
C510        C  0.63549801  0.13809351  0.32274923    -0.07800
C511        C  0.65451330  0.15422836  0.28908285    -0.02300
C512        C  0.63221856  0.18011572  0.28258119     0.04500
N513        N  0.64875921  0.19840214  0.24988337     0.67000
H514        H  0.58419318  0.21069087  0.30861621     0.15900
H515        H  0.64991571  0.11788500  0.32840947     0.15600
N516        N  0.57865576  0.12915930  0.38227521     0.74700
O517        O  0.68183760  0.21631729  0.25832744    -0.38700
O518        O  0.61747013  0.20360044  0.22120306    -0.38700
O519        O  0.54997567  0.10990448  0.37096791    -0.39400
O520        O  0.60160512  0.12681698  0.41641768    -0.39500
C521        C  0.65884403  0.17703611  0.12477452    -0.11700
C522        C  0.60684507  0.16966298  0.12712164     0.05300
C523        C  0.58738260  0.15392533  0.16079803    -0.07000
C524        C  0.62064062  0.14629420  0.19236411    -0.07800
C525        C  0.67262006  0.15462952  0.19103235    -0.02300
C526        C  0.69185610  0.16993964  0.15637636     0.04500
N527        N  0.74395859  0.17967662  0.15308243     0.67000
H528        H  0.67357946  0.18961788  0.09900028     0.15900
H529        H  0.60520230  0.13438083  0.21822025     0.15600
N530        N  0.53449612  0.14554437  0.16355260     0.74700
O531        O  0.77402122  0.16835262  0.12750832    -0.38700
O532        O  0.75260221  0.20418823  0.16151970    -0.38700
O533        O  0.52372749  0.12054841  0.16667473    -0.39400
O534        O  0.50099623  0.16255469  0.17427534    -0.39500
C535        C  0.29390106  0.17258348  0.32990153    -0.11700
C536        C  0.32530975  0.16035073  0.29940923     0.05300
C537        C  0.37945199  0.16563863  0.29988205    -0.07000
C538        C  0.39947677  0.18329600  0.32906223    -0.07800
C539        C  0.36792321  0.19493637  0.35944498    -0.02300
C540        C  0.31456883  0.18939523  0.35997265     0.04500
N541        N  0.28069477  0.20073316  0.39054183     0.67000
H542        H  0.25263996  0.16888241  0.33102089     0.15900
H543        H  0.44104944  0.18647137  0.32959402     0.15600
N544        N  0.41620910  0.15182509  0.27462983     0.74700
O545        O  0.25787153  0.22257609  0.38207148    -0.38700
O546        O  0.26383252  0.18589081  0.42033371    -0.38700
O547        O  0.43843565  0.16524073  0.24552752    -0.39400
O548        O  0.44187203  0.13350209  0.29235341    -0.39500
C549        C  0.36848841  0.13658519  0.17164088    -0.11700
C550        C  0.34359519  0.15242121  0.20201708     0.05300
C551        C  0.34833498  0.18086859  0.19996808    -0.07000
C552        C  0.37776061  0.19244880  0.16814735    -0.07800
C553        C  0.39687890  0.17693724  0.13571917    -0.02300
C554        C  0.39258637  0.14871200  0.13709314     0.04500
N555        N  0.40859370  0.13246719  0.10280031     0.67000
H556        H  0.36476514  0.11479559  0.17228682     0.15900
H557        H  0.38016579  0.21419770  0.16568251     0.15600
N558        N  0.31610217  0.19855334  0.22330806     0.74700
O559        O  0.45148212  0.12058417  0.10375476    -0.38700
O560        O  0.37556574  0.12522136  0.07667315    -0.38700
O561        O  0.27928838  0.20948071  0.20424505    -0.39400
O562        O  0.33585687  0.21132428  0.25288493    -0.39500
O563        O  0.40212758  0.19003522  0.56429885    -0.74800
O564        O  0.44395012  0.21484467  0.61258554    -0.53700
C565        C  0.41444184  0.19559738  0.60157047     0.79000
O566        O  0.57005611  0.17971989  0.91953526    -0.59400
O567        O  0.53566446  0.21098723  0.87553764    -0.52400
C568        C  0.55933667  0.18872113  0.88297250     0.71000
O569        O  0.57208961  0.17287657  0.55989685    -0.73900
O570        O  0.54635624  0.20226016  0.61027901    -0.54500
C571        C  0.56770281  0.18046221  0.59776380     0.77000
O572        O  0.37858947  0.20356599  0.93058322    -0.59100
O573        O  0.43008332  0.22598335  0.88263232    -0.52200
C574        C  0.39180005  0.21043419  0.89310273     0.73600
Zr575      Zr  0.40790487  0.21531199  0.49953299     2.54700
O576        O  0.35425706  0.17448784  0.49773233    -0.79600
O577        O  0.32552253  0.23146642  0.01662271    -0.93000
Zr578      Zr  0.55584219  0.19286529  0.49232317     2.64700
O579        O  0.52574747  0.14590274  0.49219411    -0.98000
O580        O  0.65212106  0.18492326  0.98342317    -0.80100
O581        O  0.48342588  0.20236153  0.53512110    -0.83400
O582        O  0.48247498  0.20384723  0.95615692    -2.18100
O583        O  0.42388841  0.30621455  0.93445400    -0.66800
O584        O  0.46254368  0.28195987  0.88279742    -0.51400
C585        C  0.43412441  0.30112538  0.89592414     0.72000
O586        O  0.61898643  0.28448098  0.56640693    -0.59700
O587        O  0.56939305  0.26310025  0.61638275    -0.51700
C588        C  0.60579872  0.27938009  0.60464551     0.73800
O589        O  0.61582382  0.29019760  0.92621586    -0.71100
O590        O  0.56489686  0.26911156  0.87910921    -0.49800
C591        C  0.60091081  0.28562836  0.88905720     0.75100
O592        O  0.44007238  0.30532009  0.57753001    -0.66400
O593        O  0.46806388  0.27254195  0.62213578    -0.53600
C594        C  0.44644766  0.29536509  0.61456240     0.73500
Zr595      Zr  0.44680999  0.29054662  0.00433039     2.77500
O596        O  0.48528241  0.33865519  0.50511477    -0.97200
O597        O  0.35542356  0.30132913  0.01089484    -0.78000
Zr598      Zr  0.59578383  0.27237541  0.99565029     2.70100
O599        O  0.63248710  0.31783968  0.00057065    -0.79300
O600        O  0.68386304  0.24941283  0.49565806    -0.98300
Zr601      Zr  0.50690407  0.24011277  0.57555492     2.21500
Zr602      Zr  0.50029602  0.24533408  0.92000687     2.11100
O603        O  0.51967746  0.28427243  0.96012554    -2.47000
O604        O  0.52463318  0.27596843  0.53347087    -0.79100
O605        O  0.42498394  0.25352610  0.96148352    -0.71200
O606        O  0.58180043  0.22962975  0.53493485    -2.32200
O607        O  0.42823007  0.25235367  0.54301964    -2.28400
O608        O  0.57931703  0.23470783  0.95265593    -0.73000
H609        H  0.47427354  0.18934467  0.93759646     0.79000
H610        H  0.61085564  0.22503532  0.55200100     0.80100
H611        H  0.52493110  0.30040077  0.94329965     0.82300
H612        H  0.40136668  0.25547979  0.56278879     0.79900
H613        H  0.65929813  0.18618527  0.46167262     0.42900
H614        H  0.70022427  0.26496686  0.96836541     0.41900
H615        H  0.67849651  0.31063254  0.49238435     0.41600
H616        H  0.51074552  0.33797383  0.00631453     0.39500
H617        H  0.33791410  0.28828387  0.99261437     0.42700
H618        H  0.32761876  0.25467899  0.50163651     0.37400
H619        H  0.37883982  0.15977234  0.49148966     0.43600
H620        H  0.51607947  0.14318810  0.01749794     0.40000
H621        H  0.46339529  0.34598011  0.97922458     0.44900
H622        H  0.31920369  0.23655560  0.54195491     0.43600
H623        H  0.55778249  0.13516413  0.49061226     0.43800
H624        H  0.69963122  0.25999504  0.01668583     0.44100
O625        O  0.39393006  0.45274943  0.56779309    -0.74800
O626        O  0.44407400  0.47230976  0.61686588    -0.53700
C627        C  0.40319165  0.45940286  0.60570685     0.79000
O628        O  0.61567352  0.44730026  0.92400262    -0.59400
O629        O  0.56957734  0.46948042  0.87444917    -0.52400
C630        C  0.60649858  0.45365016  0.88556955     0.71000
O631        O  0.62088331  0.44685428  0.56322859    -0.73900
O632        O  0.57128174  0.46669667  0.61381583    -0.54500
C633        C  0.60960158  0.45191389  0.60153947     0.77000
O634        O  0.39493118  0.45066601  0.92766653    -0.59100
O635        O  0.44922236  0.46873268  0.87722731    -0.52200
C636        C  0.40884740  0.45470614  0.88921286     0.73600
Zr637      Zr  0.43239911  0.45806714  0.49741917     2.54700
O638        O  0.44490650  0.40929740  0.50320443    -0.79600
O639        O  0.33505861  0.45849498  0.99523672    -0.93000
Zr640      Zr  0.58365791  0.45581158  0.49486731     2.64700
O641        O  0.56224778  0.40759331  0.49581465    -0.98000
O642        O  0.67348501  0.44616962  0.99420897    -0.80100
O643        O  0.50802776  0.45596133  0.53862639    -0.83400
O644        O  0.50506048  0.45663286  0.95453277    -2.18100
O645        O  0.40417407  0.04489633  0.92881336    -0.66800
O646        O  0.45042630  0.02482004  0.87657895    -0.51400
C647        C  0.41277258  0.03932695  0.89027224     0.72000
O648        O  0.62634954  0.04621239  0.56262519    -0.59700
O649        O  0.57639292  0.02495662  0.61287218    -0.51700
C650        C  0.61489009  0.04043448  0.60091208     0.73800
O651        O  0.63115826  0.04094350  0.92648859    -0.71100
O652        O  0.58334593  0.02207349  0.87559178    -0.49800
C653        C  0.62326737  0.03554463  0.88834844     0.75100
O654        O  0.40350499  0.04640250  0.56864508    -0.66400
O655        O  0.45255630  0.02508774  0.61748140    -0.53600
C656        C  0.41377973  0.03985826  0.60688962     0.73500
Zr657      Zr  0.44342700  0.03949992  0.99699998     2.77500
O658        O  0.47032527  0.08643478  0.49283477    -0.97200
O659        O  0.35457497  0.05763876  0.50004251    -0.78000
Zr660      Zr  0.59370528  0.03356853  0.99461921     2.70100
O661        O  0.59651316  0.08285990  0.98928419    -0.79300
O662        O  0.68506951  0.03073977  0.50258816    -0.98300
Zr663      Zr  0.51104380  0.49714339  0.57777870     2.21500
Zr664      Zr  0.51033664  0.49798781  0.91437675     2.11100
O665        O  0.51860021  0.03749123  0.95293102    -2.47000
O666        O  0.51703418  0.03793762  0.53856764    -0.79100
O667        O  0.43451013  0.50056693  0.95784622    -0.71200
O668        O  0.58690321  0.49582323  0.53489804    -2.32200
O669        O  0.43495954  0.49835638  0.53642116    -2.28400
O670        O  0.58594862  0.49554905  0.95544916    -0.73000
H671        H  0.50299384  0.44110045  0.93646128     0.79000
H672        H  0.61766100  0.49585538  0.55141559     0.80100
H673        H  0.52112696  0.05317279  0.93484053     0.82300
H674        H  0.40373493  0.49917636  0.55268407     0.79900
H675        H  0.69307493  0.46248377  0.49461269     0.42900
H676        H  0.69374806  0.01747014  0.02245088     0.41900
H677        H  0.62774027  0.08914735  0.49519745     0.41600
H678        H  0.45836110  0.09512313  0.97338959     0.39500
H679        H  0.33431975  0.04642538  0.99612919     0.42700
H680        H  0.32357780  0.46465432  0.51058473     0.37400
H681        H  0.43338375  0.40220462  0.47620968     0.43600
H682        H  0.53785853  0.40286671  0.01785111     0.40000
H683        H  0.46459784  0.09363314  0.02177307     0.44900
H684        H  0.33251558  0.43323589  0.50888122     0.43600
H685        H  0.58446437  0.39966712  0.51755337     0.43800
H686        H  0.69513420  0.01492357  0.97418684     0.44100
O687        O  0.92530000  0.30856275  0.56538149    -0.74800
O688        O  0.96448697  0.28226483  0.61442729    -0.53700
C689        C  0.93658986  0.30268431  0.60350907     0.79000
O690        O  0.90718940  0.19306544  0.93029205    -0.59400
O691        O  0.95316967  0.21466015  0.87783484    -0.52400
C692        C  0.91906984  0.19723420  0.89139257     0.71000
O693        O  0.91309477  0.19276934  0.57181723    -0.73900
O694        O  0.95543030  0.21890797  0.61865959    -0.54500
C695        C  0.92435252  0.19928862  0.60941050     0.77000
O696        O  0.91783045  0.30430762  0.92585396    -0.59100
O697        O  0.95733072  0.27868539  0.87603899    -0.52200
C698        C  0.92742310  0.29802622  0.88774916     0.73600
Zr699      Zr  0.94116912  0.28907773  0.49596852     2.54700
O700        O  0.84722886  0.28599627  0.50157585    -0.79600
O701        O  0.93418628  0.33809308  0.98842070    -0.93000
Zr702      Zr  0.93151523  0.20941203  0.50016516     2.64700
O703        O  0.84034780  0.22124200  0.50071225    -0.98000
O704        O  0.91759853  0.16030003  0.00179988    -0.80100
O705        O  0.93561381  0.24972849  0.53986134    -0.83400
O706        O  0.93323440  0.24874269  0.95623608    -2.18100
O707        O  0.10837483  0.30177733  0.91740209    -0.66800
O708        O  0.06749856  0.27479114  0.87090796    -0.51400
C709        C  0.09750911  0.29480915  0.87977953     0.72000
O710        O  0.10223649  0.19013850  0.56667560    -0.59700
O711        O  0.06326821  0.21490792  0.61756389    -0.51700
C712        C  0.09211031  0.19532186  0.60528726     0.73800
O713        O  0.09765525  0.18486368  0.92594535    -0.71100
O714        O  0.06079924  0.21185720  0.87658447    -0.49800
C715        C  0.08757536  0.19104406  0.88767647     0.75100
O716        O  0.11808879  0.30278355  0.55912622    -0.66400
O717        O  0.07405162  0.27983548  0.61155430    -0.53600
C718        C  0.10675345  0.29813428  0.59804509     0.73500
Zr719      Zr  0.09365824  0.28510918  0.99021839     2.77500
O720        O  0.18576615  0.27557512  0.98525393    -0.97200
O721        O  0.11842161  0.33301298  0.48779937    -0.78000
Zr722      Zr  0.08383291  0.20517826  0.99511687     2.70100
O723        O  0.17751358  0.21055799  0.99096125    -0.79300
O724        O  0.09027676  0.15604804  0.50278918    -0.98300
Zr725      Zr  0.01481431  0.24832391  0.57711986     2.21500
Zr726      Zr  0.01029040  0.24586318  0.91387027     2.11100
O727        O  0.08937430  0.24453762  0.95129282    -2.47000
O728        O  0.09202458  0.24562730  0.53449008    -0.79100
O729        O  0.01545000  0.28665674  0.95290206    -0.71200
O730        O  0.00939203  0.20765191  0.53749644    -2.32200
O731        O  0.01929918  0.28800665  0.53300341    -2.28400
O732        O  0.00601849  0.20609489  0.95725299    -0.73000
H733        H  0.90280243  0.24932728  0.93907480     0.79000
H734        H  0.00771732  0.19170128  0.55554778     0.80100
H735        H  0.11915966  0.24344508  0.93210069     0.82300
H736        H  0.02155024  0.30431557  0.54910786     0.79900
H737        H  0.94206146  0.15218321  0.50741244     0.42900
H738        H  0.06667917  0.14847773  0.98300854     0.41900
H739        H  0.19174386  0.19168807  0.50143798     0.41600
H740        H  0.19838856  0.28628161  0.96065330     0.39500
H741        H  0.07697002  0.34192538  0.98229923     0.42700
H742        H  0.96377886  0.34493350  0.51090588     0.37400
H743        H  0.83986069  0.28092364  0.53109519     0.43600
H744        H  0.82176194  0.19881316  0.00557798     0.40000
H745        H  0.20095400  0.28482595  0.00933568     0.44900
H746        H  0.90646051  0.34374732  0.49565654     0.43600
H747        H  0.82678224  0.21448787  0.52806572     0.43800
H748        H  0.12594114  0.15196876  0.99176754     0.44100
C749        C  0.26905087  0.11886535  0.70973819     0.46000
H750        H  0.27538356  0.11589618  0.67661193    -0.03000
C751        C  0.25739161  0.12247359  0.78869829     0.46000
H752        H  0.25200644  0.12340284  0.82305324    -0.03000
C753        C  0.30534812  0.13980320  0.72895414    -0.16700
C754        C  0.21439038  0.12934885  0.72160546    -0.16500
C755        C  0.28284737  0.09225011  0.73231037    -0.16900
C756        C  0.29898641  0.14231108  0.77117248    -0.16800
C757        C  0.20823818  0.13081485  0.76488321    -0.16400
C758        C  0.27699881  0.09417282  0.77504923    -0.16700
C759        C  0.75008508  0.12585201  0.70755730     0.46000
H760        H  0.75565244  0.12571850  0.67324600    -0.03000
C761        C  0.73844646  0.12574109  0.78697198     0.46000
H762        H  0.73270490  0.12614532  0.82086959    -0.03000
C763        C  0.70371532  0.14224593  0.72165554    -0.16700
C764        C  0.73653363  0.09725267  0.72560134    -0.16500
C765        C  0.79638044  0.13894725  0.73045871    -0.16900
C766        C  0.69596422  0.14193816  0.76416907    -0.16800
C767        C  0.73703525  0.09651434  0.76863671    -0.16400
C768        C  0.78960582  0.13931494  0.77320793    -0.16700
C769        C  0.28118381  0.37179785  0.70593263     0.46000
H770        H  0.28880225  0.37150462  0.67190551    -0.03000
C771        C  0.26471029  0.37078273  0.78538143     0.46000
H772        H  0.25736586  0.37055340  0.81952534    -0.03000
C773        C  0.32254220  0.35568456  0.72977543    -0.16700
C774        C  0.28230090  0.40061461  0.72548642    -0.16500
C775        C  0.22890346  0.35822050  0.71834320    -0.16900
C776        C  0.31220069  0.35421463  0.77205511    -0.16800
C777        C  0.27741358  0.39983659  0.76875093    -0.16400
C778        C  0.21941972  0.35838407  0.76053856    -0.16700
C779        C  0.75090365  0.36605214  0.78354663     0.46000
H780        H  0.74698617  0.36525498  0.81783496    -0.03000
C781        C  0.75854456  0.36627347  0.70377238     0.46000
H782        H  0.76159718  0.36778756  0.66953549    -0.03000
C783        C  0.71740864  0.34389021  0.76323085    -0.16700
C784        C  0.73275131  0.39334268  0.76461230    -0.16500
C785        C  0.80635528  0.35972935  0.76831031    -0.16900
C786        C  0.72238864  0.34353141  0.72026111    -0.16800
C787        C  0.73400576  0.39246111  0.72144006    -0.16400
C788        C  0.81076470  0.35982546  0.72524739    -0.16700
C789        C  0.14667284  0.35134182  0.67818032    -0.11700
C790        C  0.19678438  0.34280282  0.68780197     0.05300
C791        C  0.21616431  0.31969552  0.66747452    -0.07000
C792        C  0.18589391  0.30563304  0.63891789    -0.07800
C793        C  0.13599457  0.31398586  0.62932719    -0.02300
C794        C  0.11651546  0.33738711  0.64893379     0.04500
N795        N  0.06733482  0.34802011  0.63822124     0.67000
H796        H  0.13127242  0.36925900  0.69278595     0.15900
H797        H  0.20154808  0.28778278  0.62424200     0.15600
N798        N  0.26596899  0.30938079  0.67649834     0.74700
O799        O  0.02919335  0.34387790  0.66267673    -0.38700
O800        O  0.06550025  0.36707948  0.61155018    -0.38700
O801        O  0.27146521  0.29538140  0.70935390    -0.39400
O802        O  0.29897436  0.30764101  0.64723262    -0.39500
C803        C  0.16983717  0.31496923  0.77825433    -0.11700
C804        C  0.17635258  0.34307926  0.78305204     0.05300
C805        C  0.14889255  0.35553470  0.81556037    -0.07000
C806        C  0.12322239  0.33967523  0.84667340    -0.07800
C807        C  0.12113356  0.31119505  0.84435733    -0.02300
C808        C  0.14200066  0.29905757  0.80815098     0.04500
N809        N  0.13951055  0.27034409  0.80300681     0.67000
H810        H  0.18989738  0.30482861  0.75329157     0.15900
H811        H  0.10461041  0.34966532  0.87264431     0.15600
N812        N  0.14670991  0.38443139  0.81683640     0.74700
O813        O  0.10901778  0.26059925  0.77679946    -0.38700
O814        O  0.17480157  0.25567443  0.81752495    -0.38700
O815        O  0.12921645  0.39763587  0.78622514    -0.39400
O816        O  0.16703071  0.39687685  0.84642987    -0.39500
C817        C  0.14719818  0.13206259  0.82622832    -0.11700
C818        C  0.16730272  0.14554283  0.79026540     0.05300
C819        C  0.15712315  0.17380092  0.78633292    -0.07000
C820        C  0.12652354  0.18692110  0.81639275    -0.07800
C821        C  0.11040350  0.17398593  0.85361582    -0.02300
C822        C  0.12075416  0.14597240  0.85814254     0.04500
N823        N  0.10628085  0.13135023  0.89539282     0.67000
H824        H  0.15545397  0.11074490  0.83110010     0.15900
H825        H  0.12055198  0.20851578  0.81260975     0.15600
N826        N  0.18578763  0.19110721  0.75824305     0.74700
O827        O  0.06279086  0.11952651  0.89769599    -0.38700
O828        O  0.14088915  0.12467440  0.92066771    -0.38700
O829        O  0.16329215  0.20042046  0.72664745    -0.39400
O830        O  0.22029085  0.20568012  0.77411971    -0.39500
C831        C  0.17005956  0.17168715  0.62559106    -0.11700
C832        C  0.11953334  0.17802694  0.63620483     0.05300
C833        C  0.09763634  0.16601478  0.67279552    -0.07000
C834        C  0.12754581  0.14836443  0.69788980    -0.07800
C835        C  0.18064996  0.14368152  0.68908874    -0.02300
C836        C  0.20047229  0.15501463  0.65021741     0.04500
N837        N  0.25060196  0.15023473  0.63271574     0.67000
H838        H  0.18708039  0.18004718  0.59689898     0.15900
H839        H  0.10928968  0.13920897  0.72533969     0.15600
N840        N  0.04604691  0.17211578  0.68578923     0.74700
O841        O  0.25576405  0.12988398  0.60971097    -0.38700
O842        O  0.27891750  0.17069341  0.62456687    -0.38700
O843        O  0.01131550  0.15403552  0.68414832    -0.39400
O844        O  0.03827076  0.19270983  0.70772300    -0.39500
C845        C  0.86123665  0.14084316  0.67246246    -0.11700
C846        C  0.83673314  0.15444576  0.70516580     0.05300
C847        C  0.84614863  0.18278304  0.70874611    -0.07000
C848        C  0.87778572  0.19660891  0.67879786    -0.07800
C849        C  0.89877433  0.18320630  0.64422079    -0.02300
C850        C  0.89155844  0.15477762  0.64216211     0.04500
N851        N  0.91442616  0.13956302  0.60931956     0.67000
H852        H  0.85502411  0.11919475  0.66938092     0.15900
H853        H  0.88269098  0.21839791  0.68088043     0.15600
N854        N  0.82070213  0.19836426  0.74012801     0.74700
O855        O  0.95732225  0.12832435  0.61527250    -0.38700
O856        O  0.88601490  0.13103173  0.58074337    -0.38700
O857        O  0.84558887  0.21599459  0.75983370    -0.39400
O858        O  0.77237197  0.19663185  0.74513977    -0.39500
C859        C  0.87766731  0.15419822  0.79869558    -0.11700
C860        C  0.82342048  0.15392495  0.80394324     0.05300
C861        C  0.80229405  0.16786771  0.83881201    -0.07000
C862        C  0.83479027  0.18072243  0.86684855    -0.07800
C863        C  0.88834672  0.18182872  0.86067582    -0.02300
C864        C  0.90991356  0.16857358  0.82583175     0.04500
N865        N  0.96438207  0.16909175  0.81775814     0.67000
H866        H  0.89532768  0.14346027  0.77306926     0.15900
H867        H  0.81742648  0.19130429  0.89284688     0.15600
N868        N  0.74798324  0.17159969  0.84491666     0.74700
O869        O  0.99080224  0.14871255  0.82777063    -0.38700
O870        O  0.98295472  0.18616981  0.79167728    -0.38700
O871        O  0.72629390  0.16215744  0.87772198    -0.39400
O872        O  0.72664123  0.19076919  0.82554639    -0.39500
C873        C  0.81700679  0.32602974  0.82616480    -0.11700
C874        C  0.84096677  0.34490872  0.79826123     0.05300
C875        C  0.89545942  0.34810803  0.79992617    -0.07000
C876        C  0.92395604  0.33210688  0.82829049    -0.07800
C877        C  0.89885846  0.31344826  0.85579433    -0.02300
C878        C  0.84485358  0.31087755  0.85478235     0.04500
N879        N  0.81743216  0.29236782  0.88220981     0.67000
H880        H  0.77592288  0.32219409  0.82563497     0.15900
H881        H  0.96553185  0.33479230  0.82961867     0.15600
N882        N  0.92226372  0.36793521  0.77444214     0.74700
O883        O  0.79418130  0.30136035  0.91391171    -0.38700
O884        O  0.80622932  0.26895780  0.86967592    -0.38700
O885        O  0.92689383  0.39179028  0.78756766    -0.39400
O886        O  0.95235150  0.36018961  0.74573129    -0.39500
C887        C  0.90226036  0.30714894  0.67612217    -0.11700
C888        C  0.91407705  0.31968588  0.63760597     0.05300
C889        C  0.89957167  0.34708603  0.63193105    -0.07000
C890        C  0.87041189  0.36028081  0.66297646    -0.07800
C891        C  0.85312239  0.34664181  0.69957340    -0.02300
C892        C  0.87039898  0.31955841  0.70600029     0.04500
N893        N  0.84782565  0.30197453  0.73705688     0.67000
H894        H  0.91213484  0.28603947  0.68112405     0.15900
H895        H  0.85829323  0.38095285  0.65711955     0.15600
N896        N  0.91312234  0.36181495  0.59458350     0.74700
O897        O  0.80755878  0.28924546  0.72726433    -0.38700
O898        O  0.87708738  0.29113327  0.76343861    -0.38700
O899        O  0.87882942  0.36611228  0.56790831    -0.39400
O900        O  0.95367987  0.37627501  0.59360109    -0.39500
C901        C  0.73561118  0.07667932  0.84020976    -0.11700
C902        C  0.72799604  0.07236995  0.79788183     0.05300
C903        C  0.70281141  0.04776247  0.78786658    -0.07000
C904        C  0.66750666  0.03611974  0.81743926    -0.07800
C905        C  0.66396040  0.04598980  0.85818475    -0.02300
C906        C  0.70307189  0.06462660  0.87028407     0.04500
N907        N  0.70983540  0.07257160  0.91244063     0.67000
H908        H  0.76417886  0.09127455  0.85020828     0.15900
H909        H  0.64428316  0.01889057  0.80931617     0.15600
N910        N  0.71718167  0.03293217  0.75134922     0.74700
O911        O  0.74152691  0.05972556  0.93448487    -0.38700
O912        O  0.69752989  0.09625138  0.92272617    -0.38700
O913        O  0.76292867  0.03464855  0.73698676    -0.39400
O914        O  0.68698514  0.01523700  0.73704882    -0.39500
C915        C  0.62436529  0.05850042  0.67200389    -0.11700
C916        C  0.64752157  0.05293215  0.63360840     0.05300
C917        C  0.70039079  0.05989708  0.62749874    -0.07000
C918        C  0.72783748  0.07273133  0.65914022    -0.07800
C919        C  0.70462175  0.07914772  0.69766012    -0.02300
C920        C  0.65110047  0.07130705  0.70407762     0.04500
N921        N  0.62237686  0.07475147  0.74237872     0.67000
H922        H  0.58378705  0.05342861  0.67683361     0.15900
H923        H  0.76804683  0.07821397  0.65314398     0.15600
N924        N  0.72727965  0.05422320  0.58941603     0.74700
O925        O  0.62909295  0.09520885  0.76422009    -0.38700
O926        O  0.58606457  0.05845310  0.75257242    -0.38700
O927        O  0.73749274  0.07349528  0.56411139    -0.39400
O928        O  0.75274965  0.03262728  0.58679607    -0.39500
C929        C  0.40006457  0.05758801  0.67902057    -0.11700
C930        C  0.37869187  0.04978061  0.64132533     0.05300
C931        C  0.32439735  0.05145531  0.63781337    -0.07000
C932        C  0.29385625  0.06254072  0.67019378    -0.07800
C933        C  0.31554512  0.07240712  0.70705080    -0.02300
C934        C  0.36991792  0.06886272  0.71133063     0.04500
N935        N  0.39770508  0.07988239  0.74489821     0.67000
H936        H  0.44157511  0.05640471  0.68272423     0.15900
H937        H  0.25272354  0.06477750  0.66547711     0.15600
N938        N  0.29926115  0.04155544  0.60184496     0.74700
O939        O  0.41989187  0.10239780  0.73820991    -0.38700
O940        O  0.41810056  0.06352743  0.77021453    -0.38700
O941        O  0.27894455  0.51860808  0.59931323    -0.39400
O942        O  0.28074153  0.05819387  0.57597807    -0.39500
C943        C  0.34379163  0.03676839  0.83562034    -0.11700
C944        C  0.37772038  0.05212497  0.86014035     0.05300
C945        C  0.37524990  0.08050418  0.85822377    -0.07000
C946        C  0.34194120  0.09312222  0.83096734    -0.07800
C947        C  0.30874913  0.07840996  0.80540843    -0.02300
C948        C  0.30839481  0.04984029  0.80896580     0.04500
N949        N  0.27000433  0.03425073  0.78833008     0.67000
H950        H  0.34346016  0.01483256  0.83836352     0.15900
H951        H  0.34334839  0.11487295  0.82995765     0.15600
N952        N  0.40735585  0.09713681  0.88321332     0.74700
O953        O  0.28268892  0.01899510  0.75880118    -0.38700
O954        O  0.22292916  0.03650806  0.79868268    -0.38700
O955        O  0.44534654  0.10940109  0.86607091    -0.39400
O956        O  0.38905490  0.10595340  0.91700223    -0.39500
C957        C  0.61810371  0.41920017  0.65990736    -0.11700
C958        C  0.64180378  0.43851148  0.63355607     0.05300
C959        C  0.69588861  0.44254871  0.63601599    -0.07000
C960        C  0.72439732  0.42830129  0.66614754    -0.07800
C961        C  0.70063564  0.40890390  0.69288126    -0.02300
C962        C  0.64670417  0.40350080  0.68794491     0.04500
N963        N  0.61948551  0.38224515  0.71034186     0.67000
H964        H  0.57690643  0.41538464  0.65740535     0.15900
H965        H  0.76574303  0.43183021  0.66779823     0.15600
N966        N  0.72267748  0.46092546  0.60816076     0.74700
O967        O  0.61124785  0.38441320  0.74895704    -0.38700
O968        O  0.58961639  0.36712975  0.69021238    -0.38700
O969        O  0.74080577  0.48266589  0.62229628    -0.39400
O970        O  0.74052365  0.45220430  0.57414399    -0.39500
C971        C  0.66532018  0.43073358  0.78054389    -0.11700
C972        C  0.70719129  0.41450731  0.79302164     0.05300
C973        C  0.72094503  0.41655793  0.83553829    -0.07000
C974        C  0.68763873  0.42901757  0.86459327    -0.07800
C975        C  0.64170019  0.44181788  0.85254733    -0.02300
C976        C  0.63241955  0.44370414  0.80926884     0.04500
N977        N  0.58892140  0.45791724  0.79335310     0.67000
H978        H  0.65581743  0.43344794  0.74860270     0.15900
H979        H  0.69900217  0.42935427  0.89688667     0.15600
N980        N  0.77133534  0.40906826  0.84900780     0.74700
O981        O  0.59533661  0.48177404  0.77932553    -0.38700
O982        O  0.55028620  0.44445824  0.78168109    -0.38700
O983        O  0.80936831  0.42416996  0.83876737    -0.39400
O984        O  0.77574173  0.39248846  0.87911515    -0.39500
C985        C  0.36309923  0.41028999  0.80035485    -0.11700
C986        C  0.31058953  0.41704287  0.79679772     0.05300
C987        C  0.29135068  0.43770066  0.82278416    -0.07000
C988        C  0.32387791  0.44977629  0.85250699    -0.07800
C989        C  0.37581376  0.44200313  0.85681185    -0.02300
C990        C  0.39511508  0.42182352  0.83034562     0.04500
N991        N  0.44570683  0.41102765  0.83577877     0.67000
H992        H  0.37937907  0.39541356  0.77990848     0.15900
H993        H  0.30862202  0.46561823  0.87205347     0.15600
N994        N  0.24010281  0.44772153  0.81813610     0.74700
O995        O  0.45567180  0.39852831  0.86927894    -0.38700
O996        O  0.47488983  0.40791194  0.80434379    -0.38700
O997        O  0.21087917  0.44953086  0.84987598    -0.39400
O998        O  0.22958348  0.46120372  0.78566729    -0.39500
C999        C  0.31776679  0.43838603  0.62616782    -0.11700
C1000       C  0.36342717  0.45164786  0.63815636     0.05300
C1001       C  0.36978396  0.45642588  0.68103924    -0.07000
C1002       C  0.33740079  0.44315321  0.71045302    -0.07800
C1003       C  0.29913342  0.42453276  0.69819324    -0.02300
C1004       C  0.28519803  0.42534497  0.65577357     0.04500
N1005       N  0.23818349  0.41300465  0.64225332     0.67000
H1006       H  0.30830852  0.43695616  0.59354942     0.15900
H1007       H  0.34631986  0.44641256  0.74236624     0.15600
N1008       N  0.41043564  0.47336483  0.69581490     0.74700
O1009       O  0.19591906  0.42467470  0.64975341    -0.38700
O1010       O  0.23981218  0.39511980  0.61461890    -0.38700
O1011       O  0.39981126  0.49698518  0.70749635    -0.39400
O1012       O  0.45191024  0.46264722  0.70755295    -0.39500
C1013       C  0.35257100  0.31555335  0.86878841    -0.11700
C1014       C  0.40616289  0.31643116  0.86476322     0.05300
C1015       C  0.42984432  0.32907994  0.82953830    -0.07100
C1016       C  0.39897195  0.34241569  0.80061160    -0.07800
C1017       C  0.34469203  0.34057776  0.80364852    -0.02300
C1018       C  0.32185082  0.32625707  0.83784970     0.04500
N1019       N  0.26864332  0.31862939  0.83898011     0.67000
H1020       H  0.33420190  0.30434050  0.89455859     0.15900
H1021       H  0.41779728  0.35326736  0.77486351     0.15600
N1022       N  0.48440919  0.32791721  0.82182004     0.74700
O1023       O  0.25698540  0.29582148  0.82443731    -0.38700
O1024       O  0.23974106  0.32839046  0.86691598    -0.38700
O1025       O  0.50293393  0.30682028  0.80590227    -0.39400
O1026       O  0.51000013  0.34979129  0.81852741    -0.39500
C1027       C  0.42047897  0.33937960  0.64433485    -0.11700
C1028       C  0.42580207  0.31135268  0.65008838     0.05300
C1029       C  0.40723298  0.29950905  0.68811867    -0.07000
C1030       C  0.37761521  0.31490461  0.71588119    -0.07800
C1031       C  0.36640996  0.34212713  0.70712933    -0.02300
C1032       C  0.39235919  0.35487455  0.67286343     0.04500
N1033       N  0.39273701  0.38365172  0.66756675     0.67000
H1034       H  0.43802409  0.34934196  0.61712948     0.15900
H1035       H  0.35972674  0.30468155  0.74265707     0.15600
N1036       N  0.41177788  0.27125709  0.69706224     0.74700
O1037       O  0.40791661  0.39803256  0.69714645    -0.38700
O1038       O  0.39188838  0.39385138  0.63126766    -0.38700
O1039       O  0.45076514  0.26308140  0.71645576    -0.39400
O1040       O  0.37076173  0.25727497  0.69945792    -0.39500
C1041       C  0.64942845  0.28572858  0.82316976    -0.11700
C1042       C  0.62673800  0.30044895  0.85516845     0.05300
C1043       C  0.62964127  0.32885951  0.85451086    -0.07000
C1044       C  0.65424307  0.34209627  0.82102315    -0.07800
C1045       C  0.68168200  0.32755128  0.79064050    -0.02300
C1046       C  0.67931637  0.29876461  0.79213772     0.04500
N1047       N  0.71195847  0.28212738  0.76730401     0.67000
H1048       H  0.64780908  0.26372667  0.82436506     0.15900
H1049       H  0.65541456  0.36406028  0.82078405     0.15600
N1050       N  0.61176373  0.34439718  0.88904706     0.74700
O1051       O  0.74740508  0.26960222  0.78577289    -0.38700
O1052       O  0.69352308  0.27160455  0.73520309    -0.38700
O1053       O  0.64273528  0.34961240  0.91780204    -0.39400
O1054       O  0.57121255  0.35819322  0.88589203    -0.39500
C1055       C  0.68612073  0.30106967  0.62636267    -0.11700
C1056       C  0.63537968  0.29348551  0.63650726     0.05300
C1057       C  0.61409739  0.30105026  0.67520763    -0.07000
C1058       C  0.64256697  0.31766412  0.70124084    -0.07800
C1059       C  0.69384266  0.32545147  0.69136053    -0.02300
C1060       C  0.71572501  0.31637233  0.65310977     0.04500
N1061       N  0.76839883  0.32079721  0.64067638     0.67000
H1062       H  0.70373168  0.29472375  0.59722974     0.15900
H1063       H  0.62347183  0.32458825  0.72920364     0.15600
N1064       N  0.56367095  0.29240776  0.68876505     0.74700
O1065       O  0.79772965  0.30056642  0.64236565    -0.38700
O1066       O  0.77783572  0.33854598  0.61264942    -0.38700
O1067       O  0.55920689  0.27068269  0.70996735    -0.39400
O1068       O  0.52837954  0.30977974  0.69117595    -0.39500
C1069       C  0.59179642  0.18810968  0.81010827    -0.11700
C1070       C  0.57990117  0.17365687  0.84712215     0.05300
C1071       C  0.59677104  0.14672459  0.85131894    -0.07000
C1072       C  0.63229779  0.13681813  0.82257683    -0.07800
C1073       C  0.65005355  0.15245743  0.78793803    -0.02300
C1074       C  0.62656321  0.17795867  0.78048750     0.04500
N1075       N  0.64156073  0.19565122  0.74657597     0.67000
H1076       H  0.57811684  0.20865147  0.80575430     0.15900
H1077       H  0.64761330  0.11687820  0.82894447     0.15600
N1078       N  0.57945051  0.12920266  0.88488915     0.74700
O1079       O  0.67602538  0.21329809  0.75275573    -0.38700
O1080       O  0.60874882  0.20059821  0.71892630    -0.38700
O1081       O  0.54943377  0.10971521  0.87694812    -0.39400
O1082       O  0.60560039  0.12790275  0.91760587    -0.39500
C1083       C  0.65203001  0.17459106  0.62449288    -0.11700
C1084       C  0.60018292  0.16685600  0.62735694     0.05300
C1085       C  0.58211139  0.15015515  0.66048919    -0.07000
C1086       C  0.61628480  0.14261706  0.69152795    -0.07800
C1087       C  0.66781069  0.15176239  0.68998781    -0.02300
C1088       C  0.68593971  0.16740323  0.65539688     0.04500
N1089       N  0.73767497  0.17768887  0.65191306     0.67000
H1090       H  0.66592235  0.18761003  0.59893423     0.15900
H1091       H  0.60188798  0.13017341  0.71718589     0.15600
N1092       N  0.52996383  0.14059043  0.66325163     0.74700
O1093       O  0.76801443  0.16705524  0.62580482    -0.38700
O1094       O  0.74587364  0.20198024  0.66181218    -0.38700
O1095       O  0.52136388  0.11532697  0.66428120    -0.39400
O1096       O  0.49570359  0.15626746  0.67688523    -0.39500
C1097       C  0.29252817  0.17386277  0.82983670    -0.11700
C1098       C  0.32432542  0.16229212  0.79891445     0.05300
C1099       C  0.37798292  0.16892742  0.79842647    -0.07000
C1100       C  0.39728921  0.18648360  0.82787099    -0.07800
C1101       C  0.36568538  0.19689601  0.85921457    -0.02300
C1102       C  0.31262474  0.19077661  0.85999418     0.04500
N1103       N  0.27848347  0.20182650  0.89063021     0.67000
H1104       H  0.25146171  0.16959515  0.83119964     0.15900
H1105       H  0.43866107  0.19045122  0.82783616     0.15600
N1106       N  0.41536219  0.15688766  0.77159937     0.74700
O1107       O  0.25666252  0.22406177  0.88283908    -0.38700
O1108       O  0.26039921  0.18658549  0.91948154    -0.38700
O1109       O  0.43448843  0.17167703  0.74265446    -0.39400
O1110       O  0.44455688  0.13955349  0.78798406    -0.39500
C1111       C  0.36811998  0.13945701  0.67160213    -0.11700
C1112       C  0.34126166  0.15468716  0.70161793     0.05300
C1113       C  0.34103664  0.18318791  0.69827673    -0.07000
C1114       C  0.36817892  0.19555266  0.66592772    -0.07800
C1115       C  0.39131264  0.18037287  0.63503098    -0.02300
C1116       C  0.39078827  0.15209975  0.63691930     0.04500
N1117       N  0.40720922  0.13628604  0.60224314     0.67000
H1118       H  0.36671688  0.11759968  0.67250397     0.15900
H1119       H  0.36580145  0.21722388  0.66175768     0.15600
N1120       N  0.30660538  0.19975575  0.72140087     0.74700
O1121       O  0.44783108  0.12248524  0.60438930    -0.38700
O1122       O  0.37566040  0.13154152  0.57370306    -0.38700
O1123       O  0.26924827  0.20976570  0.70185484    -0.39400
O1124       O  0.32459545  0.21293771  0.75129070    -0.39500
O1125       O  0.39727507  0.68969856  0.06490766    -0.74800
O1126       O  0.44297197  0.71340849  0.11236681    -0.53700
C1127       C  0.41138615  0.69490222  0.10188495     0.79000
O1128       O  0.56734017  0.67906540  0.41996762    -0.59400
O1129       O  0.53216984  0.70999842  0.37591813    -0.52400
C1130       C  0.55668892  0.68807496  0.38335028     0.71000
O1131       O  0.57118565  0.67319173  0.05824351    -0.73900
O1132       O  0.54473102  0.70193860  0.10918487    -0.54500
C1133       C  0.56653121  0.68040400  0.09629290     0.77000
O1134       O  0.37518965  0.70360842  0.43242197    -0.59100
O1135       O  0.42755320  0.72490257  0.38399205    -0.52200
C1136       C  0.38880432  0.70971667  0.39478075     0.73600
Zr1137     Zr  0.40517430  0.71405559  0.99951747     2.54700
O1138       O  0.35829841  0.67115092  0.99497556    -0.79600
O1139       O  0.32413738  0.73689352  0.51494835    -0.93000
Zr1140     Zr  0.55379645  0.69314804  0.99076953     2.64700
O1141       O  0.52840886  0.64549561  0.98796976    -0.98000
O1142       O  0.64091512  0.67423456  0.48608370    -0.80100
O1143       O  0.48153245  0.70147764  0.03430706    -0.83400
O1144       O  0.47706501  0.70317812  0.45722495    -2.18100
O1145       O  0.42707539  0.80641255  0.43534738    -0.66800
O1146       O  0.46252121  0.78078629  0.38384480    -0.51400
C1147       C  0.43576664  0.80052148  0.39696187     0.72000
O1148       O  0.61834521  0.78402355  0.06395853    -0.59700
O1149       O  0.56832835  0.76291982  0.11399303    -0.51700
C1150       C  0.60525772  0.77892931  0.10219040     0.73800
O1151       O  0.61691338  0.78697308  0.42563716    -0.71100
O1152       O  0.56379120  0.76694416  0.37904228    -0.49800
C1153       C  0.60088888  0.78290779  0.38860426     0.75100
O1154       O  0.43692936  0.80407727  0.07767369    -0.66400
O1155       O  0.46618573  0.77111546  0.12146609    -0.53600
C1156       C  0.44430990  0.79386625  0.11442905     0.73500
Zr1157     Zr  0.45064797  0.79122455  0.50485943     2.77500
O1158       O  0.47572751  0.83840711  0.00379333    -0.97200
O1159       O  0.36139752  0.80597512  0.51121996    -0.78000
Zr1160     Zr  0.59751784  0.76877732  0.49521270     2.70100
O1161       O  0.64992653  0.81004429  0.49640507    -0.79300
O1162       O  0.68073489  0.75180626  0.98937247    -0.98300
Zr1163     Zr  0.50473466  0.73939289  0.07442060     2.21500
Zr1164     Zr  0.49868619  0.74408902  0.42092240     2.11100
O1165       O  0.52221525  0.78270909  0.46027456    -2.47000
O1166       O  0.52030121  0.77548177  0.03223544    -0.79100
O1167       O  0.42465304  0.75468827  0.46240169    -0.71200
O1168       O  0.57942977  0.72998700  0.03307678    -2.32200
O1169       O  0.42516453  0.75109287  0.04286680    -2.28400
O1170       O  0.57683270  0.73135364  0.45310896    -0.73000
H1171       H  0.46815465  0.68871820  0.43880646     0.79000
H1172       H  0.60881623  0.72555418  0.04987921     0.80100
H1173       H  0.52840320  0.79859746  0.44313742     0.82300
H1174       H  0.39821368  0.75389745  0.06289974     0.79900
H1175       H  0.66021542  0.69410289  0.96582448     0.42900
H1176       H  0.68715405  0.74301848  0.46207074     0.41900
H1177       H  0.60203318  0.82840187  0.99432344     0.41600
H1178       H  0.50078768  0.83957149  0.53186365     0.39500
H1179       H  0.36274586  0.82549290  0.50340812     0.42700
H1180       H  0.30299792  0.72011486  0.03258752     0.37400
H1181       H  0.38567916  0.65740710  0.99180092     0.43600
H1182       H  0.48434229  0.64687828  0.50700131     0.40000
H1183       H  0.50923054  0.83919880  0.48348063     0.44900
H1184       H  0.30253411  0.73269726  0.98745688     0.43600
H1185       H  0.50551433  0.64430000  0.96368436     0.43800
H1186       H  0.70527826  0.75815782  0.50180567     0.44100
O1187       O  0.39566921  0.95173420  0.06710526    -0.74800
O1188       O  0.44671906  0.97107252  0.11578458    -0.53700
C1189       C  0.40609427  0.95787230  0.10503336     0.79000
O1190       O  0.61795149  0.94662966  0.42523872    -0.59400
O1191       O  0.57108919  0.96785574  0.37525252    -0.52400
C1192       C  0.60832891  0.95240180  0.38671977     0.71000
O1193       O  0.61797720  0.94334577  0.06294710    -0.73900
O1194       O  0.57059318  0.96469684  0.11335649    -0.54500
C1195       C  0.60741955  0.94892973  0.10125666     0.77000
O1196       O  0.39673583  0.94945809  0.42839622    -0.59100
O1197       O  0.45100912  0.96724153  0.37771854    -0.52200
C1198       C  0.41061777  0.95333634  0.38991954     0.73600
Zr1199     Zr  0.43083467  0.95864722  0.99593370     2.54700
O1200       O  0.43474062  0.90935131  0.99894078    -0.79600
O1201       O  0.33813548  0.95213816  0.49481742    -0.93000
Zr1202     Zr  0.58210981  0.95314292  0.99408064     2.64700
O1203       O  0.55721450  0.90535162  0.99489781    -0.98000
O1204       O  0.67188527  0.93886649  0.49506267    -0.80100
O1205       O  0.50634156  0.95507818  0.03722966    -0.83400
O1206       O  0.50715301  0.95533919  0.45485427    -2.18100
O1207       O  0.40087171  0.54520445  0.42913561    -0.66800
O1208       O  0.44740688  0.52481452  0.37733154    -0.51400
C1209       C  0.40961034  0.53935807  0.39071301     0.72000
O1210       O  0.62659066  0.54590082  0.06338220    -0.59700
O1211       O  0.57596953  0.52473113  0.11326564    -0.51700
C1212       C  0.61500469  0.53993496  0.10157107     0.73800
O1213       O  0.62759789  0.54357850  0.42753435    -0.71100
O1214       O  0.58056799  0.52403759  0.37671021    -0.49800
C1215       C  0.62002080  0.53788447  0.38941351     0.75100
O1216       O  0.40105245  0.54669783  0.06922784    -0.66400
O1217       O  0.45027766  0.52524917  0.11779693    -0.53600
C1218       C  0.41121172  0.53993870  0.10740909     0.73500
Zr1219     Zr  0.43842044  0.53921357  0.49783285     2.77500
O1220       O  0.47062205  0.58729600  0.99553438    -0.97200
O1221       O  0.35460481  0.56044348  0.00011579    -0.78000
Zr1222     Zr  0.58906462  0.53636613  0.49551212     2.70100
O1223       O  0.58832859  0.58565850  0.48972962    -0.79300
O1224       O  0.68375954  0.53108980  0.00247386    -0.98300
Zr1225     Zr  0.51289236  0.99600858  0.07669657     2.21500
Zr1226     Zr  0.51208337  0.99664219  0.41438101     2.11100
O1227       O  0.51383354  0.53871899  0.45383670    -2.47000
O1228       O  0.51572248  0.53879079  0.03937078    -0.79100
O1229       O  0.43626588  0.99906651  0.45789870    -0.71200
O1230       O  0.58896234  0.99306396  0.03427657    -2.32200
O1231       O  0.43672734  0.99853072  0.03552536    -2.28400
O1232       O  0.58785035  0.99435485  0.45545081    -0.73000
H1233       H  0.50539685  0.93966073  0.43711712     0.79000
H1234       H  0.61952905  0.99251516  0.05108934     0.80100
H1235       H  0.51530632  0.55438547  0.43572854     0.82300
H1236       H  0.40563116  0.99917515  0.05199290     0.79900
H1237       H  0.69187446  0.95716116  0.98796431     0.42900
H1238       H  0.69453753  0.52276747  0.47824400     0.41900
H1239       H  0.62776330  0.58982471  0.99401012     0.41600
H1240       H  0.46041533  0.59289236  0.46750495     0.39500
H1241       H  0.32842788  0.53680164  0.49957326     0.42700
H1242       H  0.32541821  0.97180217  0.01382867     0.37400
H1243       H  0.40914601  0.90325537  0.97845431     0.43600
H1244       H  0.58778719  0.89649205  0.48688551     0.40000
H1245       H  0.43538117  0.59607237  0.51194622     0.44900
H1246       H  0.32633238  0.94023671  0.00838838     0.43600
H1247       H  0.58440718  0.89624302  0.01113291     0.43800
H1248       H  0.69513108  0.55140647  0.49906587     0.44100
O1249       O  0.92383534  0.80941405  0.06556549    -0.74800
O1250       O  0.96351631  0.78315453  0.11437085    -0.53700
C1251       C  0.93557488  0.80352411  0.10355974     0.79000
O1252       O  0.90438302  0.69240900  0.43055881    -0.59400
O1253       O  0.95117898  0.71404316  0.37853059    -0.52400
C1254       C  0.91673795  0.69673366  0.39179339     0.71000
O1255       O  0.91030503  0.69396605  0.07294633    -0.73900
O1256       O  0.95319489  0.72010100  0.11948810    -0.54500
C1257       C  0.92189101  0.70056879  0.11040936     0.77000
O1258       O  0.91427761  0.80234202  0.42656699    -0.59100
O1259       O  0.95564813  0.77742263  0.37683699    -0.52200
C1260       C  0.92460449  0.79624320  0.38846649     0.73600
Zr1261     Zr  0.93946016  0.78969087  0.99647392     2.54700
O1262       O  0.84554778  0.78802166  0.00352568    -0.79600
O1263       O  0.93897793  0.83717364  0.48876090    -0.93000
Zr1264     Zr  0.92897949  0.70994854  0.00116125     2.64700
O1265       O  0.83701534  0.72005384  0.00265948    -0.98000
O1266       O  0.91258394  0.65942380  0.50172247    -0.80100
O1267       O  0.93354019  0.75042914  0.04046885    -0.83400
O1268       O  0.93118528  0.74787418  0.45693149    -2.18100
O1269       O  0.10928975  0.79964816  0.41925978    -0.66800
O1270       O  0.06686549  0.77374412  0.37226936    -0.51400
C1271       C  0.09803529  0.79323575  0.38149087     0.72000
O1272       O  0.09921209  0.69090839  0.06801936    -0.59700
O1273       O  0.06021291  0.71571872  0.11876390    -0.51700
C1274       C  0.08895169  0.69610485  0.10661341     0.73800
O1275       O  0.09207904  0.68243769  0.42650298    -0.71100
O1276       O  0.05728384  0.71047516  0.37747350    -0.49800
C1277       C  0.08259099  0.68913751  0.38834780     0.75100
O1278       O  0.11780695  0.80247576  0.05964967    -0.66400
O1279       O  0.07253910  0.78018912  0.11204134    -0.53600
C1280       C  0.10612552  0.79804215  0.09857872     0.73500
Zr1281     Zr  0.09238751  0.78307918  0.49169524     2.77500
O1282       O  0.18451238  0.77338080  0.48849394    -0.97200
O1283       O  0.11107754  0.83389708  0.98734564    -0.78000
Zr1284     Zr  0.07992793  0.70301327  0.49550718     2.70100
O1285       O  0.17393676  0.70628345  0.49211725    -0.79300
O1286       O  0.07990407  0.65581126  0.99901674    -0.98300
Zr1287     Zr  0.01287685  0.74896351  0.07752738     2.21500
Zr1288     Zr  0.00846879  0.74487731  0.41480902     2.11100
O1289       O  0.08728475  0.74264984  0.45234420    -2.47000
O1290       O  0.08990146  0.74589427  0.03490168    -0.79100
O1291       O  0.01446889  0.78545198  0.45405013    -0.71200
O1292       O  0.00680419  0.70811016  0.03851486    -2.32200
O1293       O  0.01761347  0.78858691  0.03349026    -2.28400
O1294       O  0.00242581  0.70502487  0.45771529    -0.73000
H1295       H  0.90087157  0.74862386  0.43966351     0.79000
H1296       H  0.00494032  0.69223487  0.05674930     0.80100
H1297       H  0.11707357  0.74138178  0.43328134     0.82300
H1298       H  0.02022928  0.80489119  0.04955671     0.79900
H1299       H  0.94546558  0.65312313  0.00768481     0.42900
H1300       H  0.11700422  0.64944099  0.51148998     0.41900
H1301       H  0.18709086  0.70733001  0.02247381     0.41600
H1302       H  0.19854895  0.78553713  0.46604152     0.39500
H1303       H  0.07608570  0.83968327  0.50110748     0.42700
H1304       H  0.96550184  0.84524367  0.01040254     0.37400
H1305       H  0.83416303  0.77600041  0.98102600     0.43600
H1306       H  0.81785325  0.69892312  0.50122177     0.40000
H1307       H  0.19844736  0.78090431  0.51442813     0.44900
H1308       H  0.90768431  0.84488495  0.99640916     0.43600
H1309       H  0.82054693  0.70402414  0.01664491     0.43800
H1310       H  0.05666322  0.64775393  0.51761765     0.44100
C1311       C  0.26478545  0.61884003  0.21046477     0.46000
H1312       H  0.27102606  0.61596496  0.17732373    -0.03000
C1313       C  0.25296597  0.62192804  0.28946111     0.46000
H1314       H  0.24720450  0.62251305  0.32380961    -0.03000
C1315       C  0.30060080  0.63998553  0.22987532    -0.16700
C1316       C  0.20993207  0.62894758  0.22239066    -0.16500
C1317       C  0.27919551  0.59217916  0.23274859    -0.16900
C1318       C  0.29422132  0.64216897  0.27222732    -0.16800
C1319       C  0.20368762  0.62995403  0.26566673    -0.16400
C1320       C  0.27322154  0.59385312  0.27550150    -0.16700
C1321       C  0.74847206  0.62616145  0.20735730     0.46000
H1322       H  0.75444874  0.62550380  0.17315557    -0.03000
C1323       C  0.73647545  0.62681586  0.28671812     0.46000
H1324       H  0.73083050  0.62766849  0.32063658    -0.03000
C1325       C  0.70195268  0.64272414  0.22093318    -0.16700
C1326       C  0.73494660  0.59773182  0.22600892    -0.16500
C1327       C  0.79454083  0.63948653  0.23017482    -0.16900
C1328       C  0.69412154  0.64279242  0.26352684    -0.16800
C1329       C  0.73509461  0.59743380  0.26901473    -0.16400
C1330       C  0.78748503  0.64022886  0.27276160    -0.16700
C1331       C  0.28288729  0.86958302  0.20698500     0.46000
H1332       H  0.29061171  0.86906608  0.17296821    -0.03000
C1333       C  0.26684632  0.86914194  0.28644013     0.46000
H1334       H  0.26003992  0.86934985  0.32059290    -0.03000
C1335       C  0.32347103  0.85319085  0.23096126    -0.16700
C1336       C  0.28567096  0.89842254  0.22618381    -0.16500
C1337       C  0.23011910  0.85658150  0.21973645    -0.16900
C1338       C  0.31325651  0.85193070  0.27318630    -0.16800
C1339       C  0.28074574  0.89787839  0.26940243    -0.16400
C1340       C  0.22091479  0.85708437  0.26209059    -0.16700
C1341       C  0.74908092  0.86392582  0.28378924     0.46000
H1342       H  0.74467628  0.86242632  0.31794704    -0.03000
C1343       C  0.75748711  0.86533317  0.20409417     0.46000
H1344       H  0.76101828  0.86736916  0.16995264    -0.03000
C1345       C  0.71564155  0.84216143  0.26251933    -0.16700
C1346       C  0.73186291  0.89158746  0.26568576    -0.16500
C1347       C  0.80452267  0.85786327  0.26875640    -0.16900
C1348       C  0.72125520  0.84234544  0.21951593    -0.16800
C1349       C  0.73287223  0.89122484  0.22247584    -0.16400
C1350       C  0.80936683  0.85872531  0.22577752    -0.16700
C1351       C  0.14643785  0.84935529  0.18155531    -0.11700
C1352       C  0.19745376  0.84142668  0.18915317     0.05300
C1353       C  0.21720621  0.81924247  0.16665135    -0.07000
C1354       C  0.18680149  0.80584701  0.13743510    -0.07800
C1355       C  0.13595836  0.81356066  0.12995331    -0.02300
C1356       C  0.11575888  0.83573230  0.15228857     0.04500
N1357       N  0.06504368  0.84545021  0.14454932     0.67000
H1358       H  0.13052029  0.86644863  0.19801615     0.15900
H1359       H  0.20281093  0.78871018  0.12108807     0.15600
N1360       N  0.26682784  0.80852532  0.17512329     0.74700
O1361       O  0.02848788  0.83850637  0.16918594    -0.38700
O1362       O  0.06009535  0.86620261  0.12146860    -0.38700
O1363       O  0.27159813  0.79345944  0.20696331    -0.39400
O1364       O  0.29975164  0.80719203  0.14572333    -0.39500
C1365       C  0.16834018  0.81453572  0.27919718    -0.11700
C1366       C  0.17787461  0.84229732  0.28559827     0.05300
C1367       C  0.15463207  0.85432855  0.32073534    -0.07000
C1368       C  0.12844348  0.83809441  0.35117234    -0.07800
C1369       C  0.12229851  0.80992076  0.34650142    -0.02300
C1370       C  0.14042184  0.79844299  0.30886753     0.04500
N1371       N  0.13590253  0.76996224  0.30218400     0.67000
H1372       H  0.18630008  0.80460195  0.25298986     0.15900
H1373       H  0.11293220  0.84759022  0.37883230     0.15600
N1374       N  0.15901828  0.88302173  0.32644081     0.74700
O1375       O  0.10038731  0.76119471  0.27943692    -0.38700
O1376       O  0.17360291  0.75487455  0.31037110    -0.38700
O1377       O  0.15222098  0.89923827  0.29619132    -0.39400
O1378       O  0.17131306  0.89220844  0.36136508    -0.39500
C1379       C  0.13914958  0.63038859  0.32489990    -0.11700
C1380       C  0.16273302  0.64454491  0.29089925     0.05300
C1381       C  0.15533860  0.67305743  0.28857457    -0.07000
C1382       C  0.12494783  0.68608064  0.31867998    -0.07800
C1383       C  0.10515715  0.67238906  0.35406953    -0.02300
C1384       C  0.11160799  0.64394690  0.35663806     0.04500
N1385       N  0.09138953  0.62849526  0.39143892     0.67000
H1386       H  0.14501704  0.60873511  0.32828453     0.15900
H1387       H  0.12142777  0.70791522  0.31638126     0.15600
N1388       N  0.18551981  0.69026726  0.26139730     0.74700
O1389       O  0.04866750  0.61617988  0.38827830    -0.38700
O1390       O  0.12134283  0.62164239  0.42024558    -0.38700
O1391       O  0.16433042  0.70007247  0.22953654    -0.39400
O1392       O  0.22031093  0.70422803  0.27807661    -0.39500
C1393       C  0.16593208  0.67169139  0.12657911    -0.11700
C1394       C  0.11594026  0.67870965  0.13759999     0.05300
C1395       C  0.09421292  0.66732758  0.17470649    -0.07000
C1396       C  0.12354193  0.64915625  0.19939719    -0.07800
C1397       C  0.17637330  0.64380430  0.19020434    -0.02300
C1398       C  0.19622074  0.65504967  0.15126780     0.04500
N1399       N  0.24663831  0.65069382  0.13404747     0.67000
H1400       H  0.18295486  0.67977406  0.09770919     0.15900
H1401       H  0.10507051  0.64018865  0.22687124     0.15600
N1402       N  0.04362195  0.67467699  0.18872888     0.74700
O1403       O  0.25248411  0.63058099  0.11066562    -0.38700
O1404       O  0.27433406  0.67143522  0.12624367    -0.38700
O1405       O  0.00777438  0.65712133  0.18954268    -0.39400
O1406       O  0.03821090  0.69600912  0.20943877    -0.39500
C1407       C  0.86133295  0.64174797  0.17366487    -0.11700
C1408       C  0.83459451  0.65527322  0.20524328     0.05300
C1409       C  0.84172669  0.68377768  0.20829635    -0.07000
C1410       C  0.87332233  0.69793881  0.17877580    -0.07800
C1411       C  0.89664333  0.68452143  0.14521144    -0.02300
C1412       C  0.89185643  0.65594962  0.14383028     0.04500
N1413       N  0.91738197  0.64089407  0.11207488     0.67000
H1414       H  0.85679533  0.61996049  0.17109451     0.15900
H1415       H  0.87629851  0.71984487  0.18024744     0.15600
N1416       N  0.81332589  0.69907273  0.23829226     0.74700
O1417       O  0.96064940  0.63050084  0.11963250    -0.38700
O1418       O  0.89111205  0.63169063  0.08268456    -0.38700
O1419       O  0.83612733  0.71641676  0.26004319    -0.39400
O1420       O  0.76469859  0.69759802  0.23959817    -0.39500
C1421       C  0.87536836  0.65410487  0.29899204    -0.11700
C1422       C  0.82113340  0.65498835  0.30318171     0.05300
C1423       C  0.79986612  0.66965126  0.33720274    -0.07000
C1424       C  0.83227953  0.68214683  0.36560675    -0.07800
C1425       C  0.88597979  0.68184213  0.36074315    -0.02300
C1426       C  0.90771170  0.66778157  0.32678128     0.04500
N1427       N  0.96240375  0.66608527  0.32100502     0.67000
H1428       H  0.89293291  0.64266410  0.27406172     0.15900
H1429       H  0.81494640  0.69337493  0.39095140     0.15600
N1430       N  0.74568669  0.67431211  0.34207094     0.74700
O1431       O  0.98482195  0.64469929  0.33240848    -0.38700
O1432       O  0.98487399  0.68188249  0.29497445    -0.38700
O1433       O  0.72256685  0.66580194  0.37483223    -0.39400
O1434       O  0.72610992  0.69351992  0.32157700    -0.39500
C1435       C  0.81484909  0.82336236  0.32536747    -0.11700
C1436       C  0.83889375  0.84277914  0.29844204     0.05300
C1437       C  0.89316096  0.84641670  0.30098042    -0.07000
C1438       C  0.92139614  0.83046610  0.32950403    -0.07800
C1439       C  0.89621369  0.81136407  0.35619739    -0.02300
C1440       C  0.84243093  0.80810830  0.35399660     0.04500
N1441       N  0.81500016  0.78880822  0.38008409     0.67000
H1442       H  0.77395197  0.81916662  0.32394223     0.15900
H1443       H  0.96279356  0.83358122  0.33168835     0.15600
N1444       N  0.91986808  0.86679181  0.27650231     0.74700
O1445       O  0.78498220  0.79719949  0.40838080    -0.38700
O1446       O  0.81048065  0.76465439  0.36820675    -0.38700
O1447       O  0.92411251  0.89037870  0.29074917    -0.39400
O1448       O  0.95025722  0.85969573  0.24757145    -0.39500
C1449       C  0.90125497  0.80712399  0.17584426    -0.11700
C1450       C  0.91332322  0.82021855  0.13782920     0.05300
C1451       C  0.89879666  0.84763235  0.13273089    -0.07000
C1452       C  0.86948350  0.86038248  0.16405694    -0.07800
C1453       C  0.85195895  0.84615164  0.20005485    -0.02300
C1454       C  0.86888782  0.81900008  0.20570544     0.04500
N1455       N  0.84503143  0.80087345  0.23539332     0.67000
H1456       H  0.91095174  0.78593296  0.18020052     0.15900
H1457       H  0.85731466  0.88111455  0.15883941     0.15600
N1458       N  0.91231978  0.86273538  0.09569888     0.74700
O1459       O  0.80479473  0.78867430  0.22415039    -0.38700
O1460       O  0.87319724  0.78927449  0.26182438    -0.38700
O1461       O  0.87764109  0.86823266  0.06985608    -0.39400
O1462       O  0.95413751  0.87615354  0.09427042    -0.39500
C1463       C  0.73297826  0.57834461  0.34084158    -0.11700
C1464       C  0.72570368  0.57360416  0.29866662     0.05300
C1465       C  0.70028686  0.54900379  0.28908314    -0.07000
C1466       C  0.66444190  0.53781134  0.31864004    -0.07800
C1467       C  0.66060109  0.54820678  0.35910922    -0.02300
C1468       C  0.69974590  0.56691619  0.37091160     0.04500
N1469       N  0.70665954  0.57520565  0.41283402     0.67000
H1470       H  0.76176209  0.59289092  0.35063838     0.15900
H1471       H  0.64125819  0.52043160  0.31078381     0.15600
N1472       N  0.71558491  0.53355390  0.25344605     0.74700
O1473       O  0.74173875  0.56401214  0.43353922    -0.38700
O1474       O  0.69217892  0.59856733  0.42297663    -0.38700
O1475       O  0.76172729  0.53498110  0.23989823    -0.39400
O1476       O  0.68573883  0.51563746  0.23931857    -0.39500
C1477       C  0.62384376  0.55832159  0.17236042    -0.11700
C1478       C  0.64767647  0.55216102  0.13449086     0.05300
C1479       C  0.70092656  0.55859137  0.12907341    -0.07000
C1480       C  0.72783957  0.57182087  0.16065854    -0.07800
C1481       C  0.70372756  0.57910609  0.19840150    -0.02300
C1482       C  0.65003775  0.57150314  0.20431584     0.04500
N1483       N  0.62049561  0.57575551  0.24195258     0.67000
H1484       H  0.58306013  0.55358086  0.17673377     0.15900
H1485       H  0.76824868  0.57706360  0.15512094     0.15600
N1486       N  0.72870471  0.55217912  0.09170826     0.74700
O1487       O  0.62704679  0.59661436  0.26286681    -0.38700
O1488       O  0.58341534  0.55994333  0.25213990    -0.38700
O1489       O  0.73603836  0.57061791  0.06443782    -0.39400
O1490       O  0.75863173  0.53214661  0.09202680    -0.39500
C1491       C  0.39653863  0.55691378  0.18004507    -0.11700
C1492       C  0.37565358  0.54956986  0.14191597     0.05300
C1493       C  0.32147580  0.55190510  0.13780368    -0.07000
C1494       C  0.29069645  0.56284465  0.17018468    -0.07800
C1495       C  0.31206203  0.57245717  0.20731765    -0.02300
C1496       C  0.36633829  0.56869896  0.21193004     0.04500
N1497       N  0.39420982  0.58059712  0.24475094     0.67000
H1498       H  0.43795717  0.55549600  0.18409626     0.15900
H1499       H  0.24971731  0.56541494  0.16507465     0.15600
N1500       N  0.29669065  0.54324912  0.10092576     0.74700
O1501       O  0.41622423  0.60299167  0.23665048    -0.38700
O1502       O  0.41490823  0.56493085  0.27089171    -0.38700
O1503       O  0.27617607  0.02181790  0.09518213    -0.39400
O1504       O  0.28232220  0.56080364  0.07465482    -0.39500
C1505       C  0.34035079  0.53655528  0.33614701    -0.11700
C1506       C  0.37460663  0.55198075  0.36031986     0.05300
C1507       C  0.37215530  0.58034555  0.35817245    -0.07000
C1508       C  0.33845045  0.59288315  0.33117141    -0.07800
C1509       C  0.30515791  0.57812358  0.30578089    -0.02300
C1510       C  0.30479251  0.54956545  0.30951994     0.04500
N1511       N  0.26617076  0.53394777  0.28919349     0.67000
H1512       H  0.33990943  0.51463288  0.33913184     0.15900
H1513       H  0.33992303  0.61460545  0.32999907     0.15600
N1514       N  0.40531235  0.59704053  0.38216919     0.74700
O1515       O  0.27842767  0.51910826  0.25904998    -0.38700
O1516       O  0.21917711  0.53630481  0.29974378    -0.38700
O1517       O  0.44521863  0.60727256  0.36477418    -0.39400
O1518       O  0.38722666  0.60782185  0.41459640    -0.39500
C1519       C  0.61571729  0.91770761  0.16208344    -0.11700
C1520       C  0.63954886  0.93571469  0.13356694     0.05300
C1521       C  0.69373785  0.93939180  0.13495655    -0.07000
C1522       C  0.72262097  0.92572078  0.16541999    -0.07800
C1523       C  0.69891595  0.90757329  0.19422689    -0.02300
C1524       C  0.64446413  0.90287415  0.19121228     0.04500
N1525       N  0.61707796  0.88288125  0.21621739     0.67000
H1526       H  0.57428965  0.91431465  0.16068112     0.15900
H1527       H  0.76416522  0.92880702  0.16590418     0.15600
N1528       N  0.72009423  0.95712885  0.10586426     0.74700
O1529       O  0.60859762  0.88726475  0.25427944    -0.38700
O1530       O  0.58694285  0.86681195  0.19814502    -0.38700
O1531       O  0.73452217  0.98024028  0.11754655    -0.39400
O1532       O  0.73974390  0.94749700  0.07311107    -0.39500
C1533       C  0.66944409  0.93098028  0.28195859    -0.11700
C1534       C  0.70825796  0.91288352  0.29470750     0.05300
C1535       C  0.72041901  0.91336086  0.33774732    -0.07000
C1536       C  0.68735754  0.92605693  0.36655583    -0.07800
C1537       C  0.64328473  0.94029910  0.35399247    -0.02300
C1538       C  0.63602357  0.94362136  0.31059362     0.04500
N1539       N  0.59357883  0.95861402  0.29446159     0.67000
H1540       H  0.66207406  0.93492808  0.24981756     0.15900
H1541       H  0.69737601  0.92524684  0.39916248     0.15600
N1542       N  0.76911953  0.90394364  0.35238163     0.74700
O1543       O  0.60254145  0.97997986  0.27327199    -0.38700
O1544       O  0.55035997  0.94685342  0.29115429    -0.38700
O1545       O  0.80923994  0.91796441  0.34409306    -0.39400
O1546       O  0.77007170  0.88672253  0.38193783    -0.39500
C1547       C  0.36540576  0.90708109  0.30360062    -0.11700
C1548       C  0.31388348  0.91495659  0.29752151     0.05300
C1549       C  0.29508423  0.93679314  0.32112138    -0.07000
C1550       C  0.32692328  0.94915781  0.35102983    -0.07800
C1551       C  0.37788534  0.94038355  0.35770119    -0.02300
C1552       C  0.39676019  0.91891955  0.33364510     0.04500
N1553       N  0.44622474  0.90739701  0.34149011     0.67000
H1554       H  0.38164859  0.89138748  0.28480747     0.15900
H1555       H  0.31191098  0.96587699  0.36887101     0.15600
N1556       N  0.24493848  0.94749805  0.31381389     0.74700
O1557       O  0.45181107  0.89286113  0.37381932    -0.38700
O1558       O  0.47908325  0.90594270  0.31209888    -0.38700
O1559       O  0.21166007  0.94740936  0.34306044    -0.39400
O1560       O  0.23838328  0.96255360  0.28220105    -0.39500
C1561       C  0.32172714  0.93639670  0.12681587    -0.11700
C1562       C  0.36812437  0.94913763  0.13821727     0.05300
C1563       C  0.37718949  0.95239549  0.18114852    -0.07000
C1564       C  0.34501455  0.93919159  0.21071839    -0.07800
C1565       C  0.30449131  0.92184131  0.19877328    -0.02300
C1566       C  0.28964699  0.92321846  0.15659403     0.04500
N1567       N  0.24219719  0.91120602  0.14338189     0.67000
H1568       H  0.31099573  0.93568465  0.09439756     0.15900
H1569       H  0.35645301  0.94104075  0.24233893     0.15600
N1570       N  0.42127437  0.96692450  0.19570501     0.74700
O1571       O  0.20024555  0.92301982  0.15145652    -0.38700
O1572       O  0.24310975  0.89342827  0.11556552    -0.38700
O1573       O  0.41501931  0.98984114  0.21182315    -0.39400
O1574       O  0.46263754  0.95428977  0.20213409    -0.39500
C1575       C  0.35424387  0.81556317  0.37147225    -0.11700
C1576       C  0.40765706  0.81548822  0.36602138     0.05300
C1577       C  0.43083821  0.82639718  0.32942762    -0.07100
C1578       C  0.39985513  0.83932274  0.30045073    -0.07800
C1579       C  0.34561083  0.83838549  0.30473527    -0.02300
C1580       C  0.32302037  0.82563248  0.34049426     0.04500
N1581       N  0.26915082  0.81954600  0.34409029     0.67000
H1582       H  0.33626799  0.80557428  0.39855582     0.15900
H1583       H  0.41867152  0.84936346  0.27398325     0.15600
N1584       N  0.48489665  0.82373422  0.32036743     0.74700
O1585       O  0.25387246  0.79707276  0.33045394    -0.38700
O1586       O  0.24339322  0.83027219  0.37311142    -0.38700
O1587       O  0.50077593  0.80184438  0.30513247    -0.39400
O1588       O  0.51224729  0.84489693  0.31515837    -0.39500
C1589       C  0.42118172  0.83757357  0.14599801    -0.11700
C1590       C  0.42474102  0.80939538  0.15050302     0.05300
C1591       C  0.40639443  0.79706376  0.18827786    -0.07000
C1592       C  0.37682460  0.81216803  0.21630255    -0.07800
C1593       C  0.36701165  0.83960040  0.20849739    -0.02300
C1594       C  0.39469245  0.85286691  0.17565958     0.04500
N1595       N  0.40010678  0.88171339  0.17412584     0.67000
H1596       H  0.43968042  0.84777385  0.11940159     0.15900
H1597       H  0.35859005  0.80181940  0.24283500     0.15600
N1598       N  0.41264471  0.76889440  0.19735660     0.74700
O1599       O  0.41415321  0.89365347  0.20651648    -0.38700
O1600       O  0.40566823  0.89375787  0.13930420    -0.38700
O1601       O  0.45452104  0.76111892  0.21281979    -0.39400
O1602       O  0.37252141  0.75471915  0.20431217    -0.39500
C1603       C  0.64929641  0.78339823  0.32239811    -0.11700
C1604       C  0.62621496  0.79789967  0.35449752     0.05300
C1605       C  0.62797766  0.82634214  0.35364897    -0.07000
C1606       C  0.65187668  0.83979721  0.31997912    -0.07800
C1607       C  0.67968475  0.82552833  0.28947164    -0.02300
C1608       C  0.67840006  0.79674183  0.29108745     0.04500
N1609       N  0.71154956  0.78051871  0.26604228     0.67000
H1610       H  0.64852573  0.76139251  0.32366409     0.15900
H1611       H  0.65252194  0.86176532  0.31981352     0.15600
N1612       N  0.60977097  0.84174894  0.38822255     0.74700
O1613       O  0.74696779  0.76780443  0.28425935    -0.38700
O1614       O  0.69416060  0.77082972  0.23295643    -0.38700
O1615       O  0.64116402  0.84808770  0.41613823    -0.39400
O1616       O  0.56769858  0.85431766  0.38578964    -0.39500
C1617       C  0.68601144  0.80056547  0.12422938    -0.11700
C1618       C  0.63517207  0.79291578  0.13410288     0.05300
C1619       C  0.61370427  0.80050783  0.17267863    -0.07000
C1620       C  0.64209255  0.81671049  0.19923726    -0.07800
C1621       C  0.69328082  0.82460153  0.18975079    -0.02300
C1622       C  0.71535538  0.81594634  0.15123653     0.04500
N1623       N  0.76768661  0.82124011  0.13849157     0.67000
H1624       H  0.70367269  0.79445001  0.09499796     0.15900
H1625       H  0.62288583  0.82326763  0.22735617     0.15600
N1626       N  0.56266675  0.79265920  0.18540877     0.74700
O1627       O  0.79800305  0.80138798  0.13882700    -0.38700
O1628       O  0.77596478  0.83973239  0.11139855    -0.38700
O1629       O  0.55709175  0.77221252  0.20930605    -0.39400
O1630       O  0.52790210  0.81036931  0.18490826    -0.39500
C1631       C  0.59010650  0.68850514  0.31070730    -0.11700
C1632       C  0.57821926  0.67360086  0.34735874     0.05300
C1633       C  0.59510414  0.64669313  0.35088397    -0.07000
C1634       C  0.63060088  0.63716223  0.32186134    -0.07800
C1635       C  0.64813592  0.65311394  0.28742336    -0.02300
C1636       C  0.62459797  0.67865950  0.28061563     0.04500
N1637       N  0.63920194  0.69665203  0.24694666     0.67000
H1638       H  0.57631243  0.70906608  0.30687646     0.15900
H1639       H  0.64603292  0.61720696  0.32784516     0.15600
N1640       N  0.57732026  0.62871584  0.38374976     0.74700
O1641       O  0.67064262  0.71557955  0.25431837    -0.38700
O1642       O  0.60709282  0.70053863  0.21840297    -0.38700
O1643       O  0.54942764  0.60860864  0.37467503    -0.39400
O1644       O  0.60109105  0.62810328  0.41767510    -0.39500
C1645       C  0.65097105  0.67259121  0.12153407    -0.11700
C1646       C  0.59852063  0.66645857  0.12587233     0.05300
C1647       C  0.57959753  0.65176668  0.16090461    -0.07000
C1648       C  0.61399093  0.64403834  0.19168354    -0.07800
C1649       C  0.66621266  0.65196180  0.18885748    -0.02300
C1650       C  0.68482177  0.66607519  0.15281624     0.04500
N1651       N  0.73681813  0.67592305  0.14827810     0.67000
H1652       H  0.66536782  0.68438046  0.09477695     0.15900
H1653       H  0.59899789  0.63298829  0.21859692     0.15600
N1654       N  0.52600249  0.64533648  0.16658789     0.74700
O1655       O  0.76678535  0.66406322  0.12321463    -0.38700
O1656       O  0.74535183  0.70065159  0.15528000    -0.38700
O1657       O  0.51241360  0.62096334  0.17343557    -0.39400
O1658       O  0.49535630  0.66400298  0.17623906    -0.39500
C1659       C  0.28889754  0.67237537  0.33280914    -0.11700
C1660       C  0.31992821  0.66173797  0.30055861     0.05300
C1661       C  0.37349667  0.66859893  0.29954704    -0.07000
C1662       C  0.39317836  0.68602862  0.32904832    -0.07800
C1663       C  0.36224621  0.69584337  0.36131247    -0.02300
C1664       C  0.30949175  0.68890535  0.36326669     0.04500
N1665       N  0.27618820  0.69848279  0.39570341     0.67000
H1666       H  0.24801029  0.66768570  0.33500715     0.15900
H1667       H  0.43444286  0.69031703  0.32828684     0.15600
N1668       N  0.41057043  0.65669731  0.27230738     0.74700
O1669       O  0.25118281  0.71998106  0.38966120    -0.38700
O1670       O  0.26218675  0.68244294  0.42495428    -0.38700
O1671       O  0.42949894  0.67160595  0.24342937    -0.39400
O1672       O  0.43980681  0.63922019  0.28827518    -0.39500
C1673       C  0.36342849  0.63950929  0.17259633    -0.11700
C1674       C  0.33667592  0.65490520  0.20246157     0.05300
C1675       C  0.33682991  0.68343793  0.19873083    -0.07000
C1676       C  0.36398902  0.69558450  0.16598440    -0.07800
C1677       C  0.38776803  0.68012800  0.13568857    -0.02300
C1678       C  0.38703016  0.65188197  0.13813135     0.04500
N1679       N  0.40444080  0.63575530  0.10412708     0.67000
H1680       H  0.36177136  0.61766500  0.17359846     0.15900
H1681       H  0.36163221  0.71723248  0.16120581     0.15600
N1682       N  0.30375344  0.70030875  0.22263166     0.74700
O1683       O  0.44910184  0.62577628  0.10429391    -0.38700
O1684       O  0.37202467  0.62728801  0.07836436    -0.38700
O1685       O  0.26691815  0.71140904  0.20382414    -0.39400
O1686       O  0.32272392  0.71245782  0.25314095    -0.39500
O1687       O  0.40039628  0.68892142  0.56590296    -0.74800
O1688       O  0.44610974  0.71252225  0.61338519    -0.53700
C1689       C  0.41496802  0.69382709  0.60292239     0.79000
O1690       O  0.56693180  0.68037521  0.91892482    -0.59400
O1691       O  0.53141182  0.71122184  0.87480796    -0.52400
C1692       C  0.55619995  0.68935248  0.88236907     0.71000
O1693       O  0.57490570  0.67361795  0.55999847    -0.73900
O1694       O  0.54691951  0.70248217  0.61039233    -0.54500
C1695       C  0.56998413  0.68121210  0.59784177     0.77000
O1696       O  0.37306855  0.70439698  0.93093026    -0.59100
O1697       O  0.42563299  0.72570028  0.88260018    -0.52200
C1698       C  0.38680954  0.71056040  0.89332904     0.73600
Zr1699     Zr  0.40584879  0.71439579  0.50102959     2.54700
O1700       O  0.35014775  0.67432102  0.49926601    -0.79600
O1701       O  0.32092020  0.73368422  0.01417512    -0.93000
Zr1702     Zr  0.55339014  0.69164130  0.49221924     2.64700
O1703       O  0.51869587  0.64548238  0.49309397    -0.98000
O1704       O  0.64495493  0.68138661  0.98700656    -0.80100
O1705       O  0.48184523  0.70150440  0.53574775    -0.83400
O1706       O  0.47693544  0.70407155  0.95580195    -2.18100
O1707       O  0.42239306  0.80701580  0.93484581    -0.66800
O1708       O  0.45896011  0.78219740  0.88287012    -0.51400
C1709       C  0.43155947  0.80168218  0.89623842     0.72000
O1710       O  0.61808542  0.78381407  0.56473980    -0.59700
O1711       O  0.56856497  0.76278084  0.61517558    -0.51700
C1712       C  0.60492692  0.77893692  0.60304526     0.73800
O1713       O  0.61465836  0.78795041  0.92459363    -0.71100
O1714       O  0.56098691  0.76836595  0.87790897    -0.49800
C1715       C  0.59851411  0.78398584  0.88758579     0.75100
O1716       O  0.43708178  0.80453457  0.57747789    -0.66400
O1717       O  0.46485701  0.77164839  0.62198356    -0.53600
C1718       C  0.44293796  0.79444917  0.61444763     0.73500
Zr1719     Zr  0.44670120  0.79125486  0.00429572     2.77500
O1720       O  0.48188315  0.83804863  0.50545729    -0.97200
O1721       O  0.35667885  0.80427444  0.01304092    -0.78000
Zr1722     Zr  0.59429428  0.77078064  0.99442298     2.70100
O1723       O  0.63182938  0.81614682  0.99757984    -0.79300
O1724       O  0.67938200  0.74483467  0.49220986    -0.98300
Zr1725     Zr  0.50578347  0.73951290  0.57547223     2.21500
Zr1726     Zr  0.49627389  0.74528073  0.91954825     2.11100
O1727       O  0.51850350  0.78385807  0.95946663    -2.47000
O1728       O  0.52393850  0.77527498  0.53316151    -0.79100
O1729       O  0.42190452  0.75477170  0.96134678    -0.71200
O1730       O  0.58014696  0.72859852  0.53424362    -2.32200
O1731       O  0.42675008  0.75156186  0.54381236    -2.28400
O1732       O  0.57482787  0.73333829  0.95194777    -0.73000
H1733       H  0.46825880  0.68966231  0.93721862     0.79000
H1734       H  0.60952424  0.72415540  0.55105915     0.80100
H1735       H  0.52439362  0.79990695  0.94256765     0.82300
H1736       H  0.39982888  0.75467892  0.56374466     0.79900
H1737       H  0.66303585  0.68846292  0.49818702     0.42900
H1738       H  0.70332194  0.76743455  0.98122537     0.41900
H1739       H  0.62452436  0.82479365  0.49951415     0.41600
H1740       H  0.44462096  0.84872097  0.01198255     0.39500
H1741       H  0.33723145  0.79135019  0.99583206     0.42700
H1742       H  0.30644247  0.72522351  0.53634695     0.37400
H1743       H  0.37387810  0.65930928  0.49257541     0.43600
H1744       H  0.50486765  0.64262537  0.01237436     0.40000
H1745       H  0.49884539  0.83974680  0.02792432     0.44900
H1746       H  0.30399403  0.73421596  0.48938817     0.43600
H1747       H  0.51081497  0.64168107  0.46370152     0.43800
H1748       H  0.69006926  0.74751477  0.01850467     0.44100
O1749       O  0.39449148  0.95298143  0.56829217    -0.74800
O1750       O  0.44420861  0.97245415  0.61768844    -0.53700
C1751       C  0.40342706  0.95952636  0.60625533     0.79000
O1752       O  0.61671526  0.94597280  0.92298778    -0.59400
O1753       O  0.57074036  0.96777429  0.87301614    -0.52400
C1754       C  0.60760139  0.95207447  0.88446444     0.71000
O1755       O  0.61953138  0.94531423  0.56470549    -0.73900
O1756       O  0.57122480  0.96613351  0.61509971    -0.54500
C1757       C  0.60889233  0.95092562  0.60296839     0.77000
O1758       O  0.39587115  0.95007845  0.92633549    -0.59100
O1759       O  0.45042668  0.96780683  0.87582335    -0.52200
C1760       C  0.40966694  0.95404223  0.88780620     0.73600
Zr1761     Zr  0.43165259  0.95820903  0.49776611     2.54700
O1762       O  0.44082951  0.90918384  0.50272083    -0.79600
O1763       O  0.33664955  0.95756508  0.99436561    -0.93000
Zr1764     Zr  0.58248464  0.95380934  0.49590513     2.64700
O1765       O  0.55661316  0.90616559  0.49668577    -0.98000
O1766       O  0.67243208  0.93983577  0.99155460    -0.80100
O1767       O  0.50686258  0.95513558  0.53938862    -0.83400
O1768       O  0.50655660  0.95527701  0.95320439    -2.18100
O1769       O  0.39967205  0.54524144  0.93059133    -0.66800
O1770       O  0.44617519  0.52538027  0.87829317    -0.51400
C1771       C  0.40806780  0.53958568  0.89202877     0.72000
O1772       O  0.62306218  0.54807054  0.56322804    -0.59700
O1773       O  0.57403879  0.52602839  0.61329401    -0.51700
C1774       C  0.61196451  0.54192689  0.60146113     0.73800
O1775       O  0.62867995  0.54196200  0.92769908    -0.71100
O1776       O  0.57947232  0.52405289  0.87680284    -0.49800
C1777       C  0.61997090  0.53701219  0.88948546     0.75100
O1778       O  0.39974049  0.54598357  0.56865645    -0.66400
O1779       O  0.44953023  0.52502235  0.61736429    -0.53600
C1780       C  0.41019754  0.53951146  0.60690780     0.73500
Zr1781     Zr  0.44016631  0.54040889  0.99848903     2.77500
O1782       O  0.46382125  0.58690198  0.49689051    -0.97200
O1783       O  0.34891470  0.55389512  0.49838925    -0.78000
Zr1784     Zr  0.59062900  0.53518648  0.99596649     2.70100
O1785       O  0.59101584  0.58451284  0.99102710    -0.79300
O1786       O  0.68208568  0.53261225  0.50302963    -0.98300
Zr1787     Zr  0.51215859  0.99646172  0.57801425     2.21500
Zr1788     Zr  0.51273398  0.99662274  0.91296287     2.11100
O1789       O  0.51539859  0.53888090  0.95440764    -2.47000
O1790       O  0.51388327  0.53880234  0.53876628    -0.79100
O1791       O  0.43691827  0.99961777  0.95643740    -0.71200
O1792       O  0.58799230  0.99403984  0.53518564    -2.32200
O1793       O  0.43607396  0.99851698  0.53666640    -2.28400
O1794       O  0.58801041  0.99385602  0.95436276    -0.73000
H1795       H  0.50435627  0.93967555  0.93534293     0.79000
H1796       H  0.61880330  0.99387454  0.55162275     0.80100
H1797       H  0.51762668  0.55460657  0.93635208     0.82300
H1798       H  0.40489720  0.99959333  0.55300099     0.79900
H1799       H  0.69255678  0.95583840  0.49651008     0.42900
H1800       H  0.69558069  0.52088075  0.97785274     0.41900
H1801       H  0.57457940  0.59165443  0.51700957     0.41600
H1802       H  0.44580104  0.59678456  0.97746938     0.39500
H1803       H  0.33048781  0.54472316  0.99941539     0.42700
H1804       H  0.32355109  0.96622985  0.51308490     0.37400
H1805       H  0.43265762  0.90269224  0.47456079     0.43600
H1806       H  0.56339561  0.89945753  0.96591437     0.40000
H1807       H  0.46312533  0.59417191  0.02378014     0.44900
H1808       H  0.33068937  0.93474575  0.50975355     0.43600
H1809       H  0.55314854  0.90114010  0.52661908     0.43800
H1810       H  0.69709069  0.54976766  0.99777251     0.44100
O1811       O  0.92370746  0.80731319  0.56608586    -0.74800
O1812       O  0.96189400  0.78037384  0.61483531    -0.53700
C1813       C  0.93482413  0.80107669  0.60407835     0.79000
O1814       O  0.90768010  0.69214437  0.93246495    -0.59400
O1815       O  0.95292577  0.71379055  0.87966032    -0.52400
C1816       C  0.91950658  0.69608967  0.89353014     0.71000
O1817       O  0.90721163  0.69211615  0.57190340    -0.73900
O1818       O  0.95106549  0.71771912  0.61859370    -0.54500
C1819       C  0.91932021  0.69845206  0.60942065     0.77000
O1820       O  0.91492271  0.80333808  0.92631554    -0.59100
O1821       O  0.95554741  0.77781285  0.87691151    -0.52200
C1822       C  0.92484103  0.79680095  0.88837363     0.73600
Zr1823     Zr  0.93852742  0.78798370  0.49669538     2.54700
O1824       O  0.84484423  0.78491624  0.50495583    -0.79600
O1825       O  0.94271176  0.83886294  0.98807103    -0.93000
Zr1826     Zr  0.92677313  0.70830571  0.50014003     2.64700
O1827       O  0.83430866  0.71713863  0.50169867    -0.98000
O1828       O  0.91107030  0.66143359  0.00432209    -0.80100
O1829       O  0.93198475  0.74848759  0.54008793    -0.83400
O1830       O  0.93225277  0.74917029  0.95733952    -2.18100
O1831       O  0.10731106  0.80162779  0.91784074    -0.66800
O1832       O  0.06557786  0.77490046  0.87152021    -0.51400
C1833       C  0.09582736  0.79482817  0.88029324     0.72000
O1834       O  0.09483161  0.68718429  0.56706493    -0.59700
O1835       O  0.05720422  0.71239550  0.61801326    -0.51700
C1836       C  0.08483909  0.69240468  0.60566607     0.73800
O1837       O  0.09781659  0.68588789  0.92645655    -0.71100
O1838       O  0.05966615  0.71239166  0.87715485    -0.49800
C1839       C  0.08703453  0.69185463  0.88824123     0.75100
O1840       O  0.11604560  0.80011739  0.56095509    -0.66400
O1841       O  0.07067691  0.77747266  0.61289704    -0.53600
C1842       C  0.10407216  0.79556925  0.59978028     0.73500
Zr1843     Zr  0.09306667  0.78532315  0.99068330     2.77500
O1844       O  0.18500704  0.77544389  0.98595786    -0.97200
O1845       O  0.10840318  0.83182641  0.48980205    -0.78000
Zr1846     Zr  0.08232716  0.70526465  0.99603453     2.70100
O1847       O  0.17652124  0.70668813  0.99302486    -0.79300
O1848       O  0.08419280  0.65367141  0.49749081    -0.98300
Zr1849     Zr  0.01114558  0.74645968  0.57738598     2.21500
Zr1850     Zr  0.00919851  0.74587378  0.91497828     2.11100
O1851       O  0.08836968  0.74458472  0.95217501    -2.47000
O1852       O  0.08840284  0.74327416  0.53518833    -0.79100
O1853       O  0.01489060  0.78688875  0.95335435    -0.71200
O1854       O  0.00425156  0.70586023  0.53776567    -2.32200
O1855       O  0.01650605  0.78628633  0.53394628    -2.28400
O1856       O  0.00446265  0.70640966  0.95861316    -0.73000
H1857       H  0.90187138  0.74961265  0.94014651     0.79000
H1858       H  0.00179279  0.68985877  0.55567235     0.80100
H1859       H  0.11810368  0.74338069  0.93296081     0.82300
H1860       H  0.01919418  0.80246969  0.55026465     0.79900
H1861       H  0.94674822  0.65183167  0.50856418     0.42900
H1862       H  0.06530606  0.65089818  0.02689994     0.41900
H1863       H  0.18391953  0.71201799  0.52028181     0.41600
H1864       H  0.20182238  0.79326042  0.97995481     0.39500
H1865       H  0.07976096  0.84222867  0.99961929     0.42700
H1866       H  0.96137529  0.84384166  0.51114893     0.37400
H1867       H  0.83254447  0.77908482  0.47749047     0.43600
H1868       H  0.82635483  0.71889765  0.97327622     0.40000
H1869       H  0.19476326  0.77088174  0.01490549     0.44900
H1870       H  0.90357589  0.84258855  0.49709311     0.43600
H1871       H  0.82703120  0.72368459  0.53017399     0.43800
H1872       H  0.05218872  0.65070403  0.97969231     0.44100
C1873       C  0.26410632  0.61853800  0.71014987     0.46000
H1874       H  0.26941818  0.61563634  0.67678303    -0.03000
C1875       C  0.25265856  0.62205969  0.78917272     0.46000
H1876       H  0.24724307  0.62296009  0.82353008    -0.03000
C1877       C  0.30026012  0.63968950  0.72932874    -0.16700
C1878       C  0.20945445  0.62869024  0.72236573    -0.16500
C1879       C  0.27857828  0.59195532  0.73264312    -0.16900
C1880       C  0.29382614  0.64208983  0.77164261    -0.16800
C1881       C  0.20339277  0.63012121  0.76551315    -0.16400
C1882       C  0.27282240  0.59390241  0.77545530    -0.16700
C1883       C  0.74949981  0.62629823  0.70910275     0.46000
H1884       H  0.75529588  0.62623841  0.67481210    -0.03000
C1885       C  0.73748395  0.62604746  0.78849103     0.46000
H1886       H  0.73162492  0.62638838  0.82242316    -0.03000
C1887       C  0.70421997  0.64347221  0.72313869    -0.16700
C1888       C  0.73418877  0.59788622  0.72672452    -0.16500
C1889       C  0.79635914  0.63837262  0.73243179    -0.16900
C1890       C  0.69623539  0.64308883  0.76562202    -0.16800
C1891       C  0.73454916  0.59694886  0.76970134    -0.16400
C1892       C  0.78940234  0.63882171  0.77512296    -0.16700
C1893       C  0.27871264  0.87129572  0.70568608     0.46000
H1894       H  0.28650766  0.87051349  0.67175248    -0.03000
C1895       C  0.26244157  0.87119820  0.78509799     0.46000
H1896       H  0.25537922  0.87144881  0.81923472    -0.03000
C1897       C  0.32010946  0.85542631  0.72986458    -0.16700
C1898       C  0.28012283  0.90037837  0.72458010    -0.16500
C1899       C  0.22622105  0.85787929  0.71843587    -0.16900
C1900       C  0.30968804  0.85439899  0.77217359    -0.16800
C1901       C  0.27536879  0.89999135  0.76790493    -0.16400
C1902       C  0.21692834  0.85865331  0.76072753    -0.16700
C1903       C  0.75003973  0.86387698  0.78305246     0.46000
H1904       H  0.74577792  0.86275511  0.81724973    -0.03000
C1905       C  0.75830361  0.86449395  0.70330567     0.46000
H1906       H  0.76166572  0.86605859  0.66906032    -0.03000
C1907       C  0.71644581  0.84197338  0.76234478    -0.16700
C1908       C  0.73294144  0.89134992  0.76435016    -0.16500
C1909       C  0.80531966  0.85756799  0.76808681    -0.16900
C1910       C  0.72187734  0.84178247  0.71943368    -0.16800
C1911       C  0.73421558  0.89072014  0.72115724    -0.16400
C1912       C  0.81009354  0.85786473  0.72515662    -0.16700
C1913       C  0.14327982  0.84973186  0.67901484    -0.11700
C1914       C  0.19396577  0.84191872  0.68827580     0.05300
C1915       C  0.21349662  0.81862550  0.66850309    -0.07000
C1916       C  0.18326596  0.80388301  0.64063932    -0.07800
C1917       C  0.13295169  0.81160122  0.63126972    -0.02300
C1918       C  0.11304349  0.83501281  0.65058560     0.04500
N1919       N  0.06333060  0.84498591  0.64013335     0.67000
H1920       H  0.12741664  0.86765180  0.69328168     0.15900
H1921       H  0.19931764  0.78599848  0.62634253     0.15600
N1922       N  0.26324053  0.80855118  0.67792361     0.74700
O1923       O  0.02574486  0.84084476  0.66514584    -0.38700
O1924       O  0.06037668  0.86351952  0.61270980    -0.38700
O1925       O  0.26839134  0.79479166  0.71105821    -0.39400
O1926       O  0.29618438  0.80641328  0.64869986    -0.39500
C1927       C  0.16480111  0.81610005  0.77790350    -0.11700
C1928       C  0.17380082  0.84393545  0.78413303     0.05300
C1929       C  0.14984518  0.85604326  0.81896854    -0.07000
C1930       C  0.12361978  0.83973239  0.84925808    -0.07800
C1931       C  0.11879879  0.81150651  0.84499217    -0.02300
C1932       C  0.13738606  0.79993329  0.80764951     0.04500
N1933       N  0.13424771  0.77132988  0.80152515     0.67000
H1934       H  0.18317634  0.80609524  0.75201348     0.15900
H1935       H  0.10742408  0.84914758  0.87673787     0.15600
N1936       N  0.15375131  0.88477756  0.82481491     0.74700
O1937       O  0.09999945  0.76194273  0.77812613    -0.38700
O1938       O  0.17203834  0.75668205  0.81120713    -0.38700
O1939       O  0.15118496  0.90099583  0.79404533    -0.39400
O1940       O  0.15781488  0.89409393  0.86097468    -0.39500
C1941       C  0.14274016  0.63210164  0.82687014    -0.11700
C1942       C  0.16292683  0.64520868  0.79062082     0.05300
C1943       C  0.15396233  0.67354587  0.78625689    -0.07000
C1944       C  0.12516799  0.68729367  0.81675249    -0.07800
C1945       C  0.10909841  0.67465037  0.85423415    -0.02300
C1946       C  0.11758340  0.64649768  0.85885017     0.04500
N1947       N  0.10221714  0.63222890  0.89622379     0.67000
H1948       H  0.15000840  0.61069086  0.83187377     0.15900
H1949       H  0.12021566  0.70896083  0.81286609     0.15600
N1950       N  0.18223053  0.69015247  0.75688921     0.74700
O1951       O  0.05855427  0.62058147  0.89838465    -0.38700
O1952       O  0.13586323  0.62632215  0.92275211    -0.38700
O1953       O  0.15916313  0.69900632  0.72526069    -0.39400
O1954       O  0.21795538  0.70459629  0.77127505    -0.39500
C1955       C  0.16331811  0.66993547  0.62624897    -0.11700
C1956       C  0.11221462  0.67516021  0.63644722     0.05300
C1957       C  0.09069836  0.66297023  0.67307250    -0.07000
C1958       C  0.12167619  0.64606427  0.69847225    -0.07800
C1959       C  0.17529419  0.64270679  0.69012023    -0.02300
C1960       C  0.19506306  0.65474363  0.65179254     0.04500
N1961       N  0.24736415  0.65354671  0.63702900     0.67000
H1962       H  0.18028372  0.67882502  0.59788791     0.15900
H1963       H  0.10395249  0.63659401  0.72591750     0.15600
N1964       N  0.03844184  0.66801365  0.68563288     0.74700
O1965       O  0.25850222  0.63518823  0.61153644    -0.38700
O1966       O  0.27173559  0.67576760  0.63314408    -0.38700
O1967       O  0.00620355  0.64862456  0.68751269    -0.39400
O1968       O  0.02809671  0.68971455  0.70413966    -0.39500
C1969       C  0.86057221  0.63989895  0.67439241    -0.11700
C1970       C  0.83689365  0.65355620  0.70739022     0.05300
C1971       C  0.84526281  0.68194067  0.71037952    -0.07000
C1972       C  0.87504718  0.69588718  0.67950168    -0.07800
C1973       C  0.89479803  0.68243220  0.64451318    -0.02300
C1974       C  0.88860208  0.65394832  0.64291764     0.04500
N1975       N  0.90940695  0.63888902  0.60904626     0.67000
H1976       H  0.85467908  0.61819975  0.67168355     0.15900
H1977       H  0.87920405  0.71773717  0.68118253     0.15600
N1978       N  0.81953645  0.69740103  0.74169093     0.74700
O1979       O  0.95400664  0.62901377  0.61206095    -0.38700
O1980       O  0.87897954  0.62939757  0.58257568    -0.38700
O1981       O  0.84463220  0.71411991  0.76295874    -0.39400
O1982       O  0.77096170  0.69658680  0.74498599    -0.39500
C1983       C  0.87781236  0.65228795  0.80166268    -0.11700
C1984       C  0.82350742  0.65311097  0.80600409     0.05300
C1985       C  0.80255519  0.66769799  0.84027721    -0.07000
C1986       C  0.83517688  0.68037907  0.86838269    -0.07800
C1987       C  0.88884799  0.68041105  0.86311264    -0.02300
C1988       C  0.91037945  0.66613633  0.82924706     0.04500
N1989       N  0.96507246  0.66461552  0.82315282     0.67000
H1990       H  0.89524523  0.64091384  0.77660280     0.15900
H1991       H  0.81791669  0.69164397  0.89372028     0.15600
N1992       N  0.74842690  0.67233044  0.84557442     0.74700
O1993       O  0.98824853  0.64376517  0.83589155    -0.38700
O1994       O  0.98696957  0.67994705  0.79616642    -0.38700
O1995       O  0.72548171  0.66308945  0.87796400    -0.39400
O1996       O  0.72901652  0.69219347  0.82648883    -0.39500
C1997       C  0.81523281  0.82352801  0.82525068    -0.11700
C1998       C  0.83947770  0.84267299  0.79796218     0.05300
C1999       C  0.89377919  0.84618911  0.80024409    -0.07000
C2000       C  0.92187630  0.83042485  0.82898033    -0.07800
C2001       C  0.89649280  0.81168830  0.85608903    -0.02300
C2002       C  0.84271279  0.80852439  0.85416700     0.04500
N2003       N  0.81523027  0.78962516  0.88091553     0.67000
H2004       H  0.77429436  0.81940109  0.82398390     0.15900
H2005       H  0.96333782  0.83338105  0.83096778     0.15600
N2006       N  0.92071952  0.86617982  0.77517756     0.74700
O2007       O  0.78940924  0.79836580  0.91150338    -0.38700
O2008       O  0.80616982  0.76601182  0.86818441    -0.38700
O2009       O  0.92678458  0.88967032  0.78938343    -0.39400
O2010       O  0.95011264  0.85859701  0.74590135    -0.39500
C2011       C  0.90071732  0.80514619  0.67642790    -0.11700
C2012       C  0.91306336  0.81796207  0.63825759     0.05300
C2013       C  0.89955349  0.84549606  0.63289706    -0.07000
C2014       C  0.87055831  0.85862849  0.66393384    -0.07800
C2015       C  0.85244159  0.84471539  0.69996301    -0.02300
C2016       C  0.86888200  0.81749149  0.70620342     0.04500
N2017       N  0.84561984  0.79984381  0.73687967     0.67000
H2018       H  0.90995734  0.78392121  0.68109958     0.15900
H2019       H  0.85901663  0.87943370  0.65841318     0.15600
N2020       N  0.91353983  0.86033712  0.59574986     0.74700
O2021       O  0.80511921  0.78746163  0.72673372    -0.38700
O2022       O  0.87437507  0.78864547  0.76328866    -0.38700
O2023       O  0.87906408  0.86577846  0.56971398    -0.39400
O2024       O  0.95518642  0.87389255  0.59460377    -0.39500
C2025       C  0.73363512  0.57668370  0.84068170    -0.11700
C2026       C  0.72502398  0.57271787  0.79848808     0.05300
C2027       C  0.69825799  0.54860352  0.78839480    -0.07000
C2028       C  0.66267900  0.53740737  0.81812258    -0.07800
C2029       C  0.66036833  0.54719938  0.85899644    -0.02300
C2030       C  0.70061720  0.56521274  0.87084967     0.04500
N2031       N  0.70828837  0.57313130  0.91284248     0.67000
H2032       H  0.76307331  0.59086355  0.85049535     0.15900
H2033       H  0.63833692  0.52054269  0.80999285     0.15600
N2034       N  0.71170545  0.53359720  0.75183792     0.74700
O2035       O  0.74485743  0.56246925  0.93250572    -0.38700
O2036       O  0.69208064  0.59595973  0.92405984    -0.38700
O2037       O  0.75743651  0.53471725  0.73733520    -0.39400
O2038       O  0.68062306  0.51628139  0.73767076    -0.39500
C2039       C  0.62117471  0.56016745  0.67249892    -0.11700
C2040       C  0.64445773  0.55443420  0.63421791     0.05300
C2041       C  0.69744127  0.56116492  0.62826993    -0.07000
C2042       C  0.72503253  0.57375109  0.66003146    -0.07800
C2043       C  0.70178537  0.58026668  0.69846826    -0.02300
C2044       C  0.64800081  0.57288492  0.70462924     0.04500
N2045       N  0.61909795  0.57677125  0.74271908     0.67000
H2046       H  0.58047794  0.55530934  0.67714390     0.15900
H2047       H  0.76541060  0.57893810  0.65419685     0.15600
N2048       N  0.72436373  0.55544297  0.59024780     0.74700
O2049       O  0.62681303  0.59710259  0.76460755    -0.38700
O2050       O  0.58185721  0.56102240  0.75273983    -0.38700
O2051       O  0.73377722  0.57462670  0.56460495    -0.39400
O2052       O  0.75102921  0.53423078  0.58819685    -0.39500
C2053       C  0.39584520  0.55693498  0.67940473    -0.11700
C2054       C  0.37476499  0.54931563  0.64146238     0.05300
C2055       C  0.32053065  0.55152920  0.63760594    -0.07000
C2056       C  0.28986444  0.56248801  0.67009440    -0.07800
C2057       C  0.31133621  0.57214343  0.70720179    -0.02300
C2058       C  0.36570442  0.56855328  0.71151631     0.04500
N2059       N  0.39367642  0.58042464  0.74431570     0.67000
H2060       H  0.43731122  0.55564280  0.68327400     0.15900
H2061       H  0.24884188  0.56498875  0.66512139     0.15600
N2062       N  0.29558775  0.54271237  0.60088113     0.74700
O2063       O  0.41782163  0.60214230  0.73556900    -0.38700
O2064       O  0.41241748  0.56474898  0.77143482    -0.38700
O2065       O  0.28539088  0.01695656  0.60104286    -0.39400
O2066       O  0.27978500  0.56014257  0.57498738    -0.39500
C2067       C  0.33930202  0.53669570  0.83682530    -0.11700
C2068       C  0.37255093  0.55215946  0.86186017     0.05300
C2069       C  0.36921101  0.58051362  0.86025887    -0.07000
C2070       C  0.33649088  0.59302723  0.83241463    -0.07800
C2071       C  0.30431004  0.57822732  0.80614822    -0.02300
C2072       C  0.30407693  0.54967631  0.80981566     0.04500
N2073       N  0.26607672  0.53404193  0.78876634     0.67000
H2074       H  0.33935002  0.51476283  0.83942393     0.15900
H2075       H  0.33751536  0.61477909  0.83156672     0.15600
N2076       N  0.39991862  0.59723288  0.88620192     0.74700
O2077       O  0.27958381  0.51807661  0.76039545    -0.38700
O2078       O  0.21860720  0.53776538  0.79632086    -0.38700
O2079       O  0.44123644  0.60753190  0.87134495    -0.39400
O2080       O  0.37896648  0.60777682  0.91772008    -0.39500
C2081       C  0.61826099  0.91677488  0.65910820    -0.11700
C2082       C  0.64093427  0.93757963  0.63507613     0.05300
C2083       C  0.69398694  0.94352593  0.64011008    -0.07000
C2084       C  0.72318869  0.92847661  0.66889431    -0.07800
C2085       C  0.70058690  0.90730543  0.69297822    -0.02300
C2086       C  0.64698136  0.90130181  0.68736170     0.04500
N2087       N  0.61977923  0.88029750  0.71038784     0.67000
H2088       H  0.57751520  0.91220020  0.65537896     0.15900
H2089       H  0.76386565  0.93328091  0.67229008     0.15600
N2090       N  0.71831690  0.96551120  0.61759319     0.74700
O2091       O  0.61579354  0.88173043  0.74946733    -0.38700
O2092       O  0.58666804  0.86627610  0.69166893    -0.38700
O2093       O  0.72746938  0.98725336  0.63635454    -0.39400
O2094       O  0.74153749  0.96104091  0.58352211    -0.39500
C2095       C  0.66775801  0.92952424  0.77999043    -0.11700
C2096       C  0.70823613  0.91253854  0.79289596     0.05300
C2097       C  0.72084213  0.91377750  0.83578472    -0.07000
C2098       C  0.68746686  0.92639990  0.86444917    -0.07800
C2099       C  0.64282847  0.94011507  0.85178668    -0.02300
C2100       C  0.63491948  0.94268939  0.80837410     0.04500
N2101       N  0.59268090  0.95762412  0.79184767     0.67000
H2102       H  0.65896564  0.93258178  0.74795100     0.15900
H2103       H  0.69776998  0.92605107  0.89700278     0.15600
N2104       N  0.77002449  0.90504841  0.85036331     0.74700
O2105       O  0.60072621  0.98157267  0.77880865    -0.38700
O2106       O  0.55492043  0.94466159  0.77756414    -0.38700
O2107       O  0.80938962  0.91963871  0.84202201    -0.39400
O2108       O  0.77185731  0.88796307  0.88005554    -0.39500
C2109       C  0.36201188  0.91119948  0.79728165    -0.11700
C2110       C  0.30897836  0.91709382  0.79583864     0.05300
C2111       C  0.28973166  0.93647822  0.82405928    -0.07000
C2112       C  0.32294097  0.94819806  0.85368680    -0.07800
C2113       C  0.37584440  0.94164308  0.85538883    -0.02300
C2114       C  0.39514426  0.92293250  0.82634889     0.04500
N2115       N  0.44752882  0.91404043  0.82749872     0.67000
H2116       H  0.37792244  0.89677499  0.77585908     0.15900
H2117       H  0.30747550  0.96297389  0.87503901     0.15600
N2118       N  0.23764278  0.94566869  0.82174186     0.74700
O2119       O  0.46302800  0.90148528  0.85941922    -0.38700
O2120       O  0.47308644  0.91234580  0.79380845    -0.38700
O2121       O  0.20934234  0.94521556  0.85420623    -0.39400
O2122       O  0.22515109  0.96059538  0.79129857    -0.39500
C2123       C  0.31879639  0.93735773  0.62513319    -0.11700
C2124       C  0.36313733  0.95142326  0.63809118     0.05300
C2125       C  0.36718802  0.95676579  0.68099150    -0.07000
C2126       C  0.33357401  0.94363505  0.70971461    -0.07800
C2127       C  0.29729100  0.92408442  0.69685863    -0.02300
C2128       C  0.28561661  0.92409406  0.65396224     0.04500
N2129       N  0.24016592  0.91086627  0.63906994     0.67000
H2130       H  0.31082941  0.93544656  0.59231234     0.15900
H2131       H  0.33961789  0.94801062  0.74176511     0.15600
N2132       N  0.40633631  0.97434532  0.69654937     0.74700
O2133       O  0.19675553  0.92158932  0.64562076    -0.38700
O2134       O  0.24434265  0.89332100  0.61106323    -0.38700
O2135       O  0.39382737  0.99771443  0.70820933    -0.39400
O2136       O  0.44775323  0.96420323  0.70953464    -0.39500
C2137       C  0.35002304  0.81685356  0.87000809    -0.11700
C2138       C  0.40354818  0.81711481  0.86528876     0.05300
C2139       C  0.42704563  0.82923549  0.82956215    -0.07100
C2140       C  0.39616626  0.84258046  0.80070353    -0.07800
C2141       C  0.34193766  0.84106106  0.80414258    -0.02300
C2142       C  0.31911016  0.82751463  0.83916199     0.04500
N2143       N  0.26531782  0.82117042  0.84194815     0.67000
H2144       H  0.33174284  0.80621349  0.89637551     0.15900
H2145       H  0.41493517  0.85317145  0.77468561     0.15600
N2146       N  0.48137311  0.82737377  0.82112940     0.74700
O2147       O  0.25084861  0.79858725  0.82819102    -0.38700
O2148       O  0.23870179  0.83179527  0.87055858    -0.38700
O2149       O  0.49865406  0.80580309  0.80581225    -0.39400
O2150       O  0.50771095  0.84893445  0.81648594    -0.39500
C2151       C  0.41844123  0.83860794  0.64477499    -0.11700
C2152       C  0.42189510  0.81043846  0.64991185     0.05300
C2153       C  0.40193741  0.79854331  0.68739329    -0.07000
C2154       C  0.37431217  0.81434685  0.71597245    -0.07800
C2155       C  0.36418436  0.84173250  0.70749460    -0.02300
C2156       C  0.39072753  0.85434701  0.67332016     0.04500
N2157       N  0.39206048  0.88316816  0.66804893     0.67000
H2158       H  0.43692534  0.84846465  0.61787833     0.15900
H2159       H  0.35572405  0.80422551  0.74254510     0.15600
N2160       N  0.39941163  0.76991737  0.69325104     0.74700
O2161       O  0.40475899  0.89752501  0.69839521    -0.38700
O2162       O  0.39440507  0.89342625  0.63176058    -0.38700
O2163       O  0.43333605  0.75837187  0.71479751    -0.39400
O2164       O  0.35581063  0.75860326  0.68980819    -0.39500
C2165       C  0.64721143  0.78388633  0.82167742    -0.11700
C2166       C  0.62445258  0.79865137  0.85361066     0.05300
C2167       C  0.62793825  0.82702696  0.85315451    -0.07000
C2168       C  0.65305537  0.84022860  0.81993250    -0.07800
C2169       C  0.68025164  0.82566828  0.78944328    -0.02300
C2170       C  0.67749577  0.79688777  0.79079726     0.04500
N2171       N  0.71029740  0.78023762  0.76612306     0.67000
H2172       H  0.64532295  0.76188971  0.82283799     0.15900
H2173       H  0.65471492  0.86217928  0.82000246     0.15600
N2174       N  0.61023156  0.84255568  0.88773668     0.74700
O2175       O  0.74449132  0.76691084  0.78484966    -0.38700
O2176       O  0.69310447  0.77084124  0.73276828    -0.38700
O2177       O  0.64268395  0.85087917  0.91358138    -0.39400
O2178       O  0.56585503  0.85288488  0.88733340    -0.39500
C2179       C  0.68592474  0.79949200  0.62540414    -0.11700
C2180       C  0.63449098  0.79297737  0.63476836     0.05300
C2181       C  0.61264909  0.80102658  0.67299330    -0.07000
C2182       C  0.64164946  0.81689472  0.69960293    -0.07800
C2183       C  0.69342604  0.82392363  0.69032701    -0.02300
C2184       C  0.71575257  0.81440770  0.65249688     0.04500
N2185       N  0.76891510  0.81801713  0.64087570     0.67000
H2186       H  0.70375236  0.79267236  0.59662588     0.15900
H2187       H  0.62247124  0.82405089  0.72738147     0.15600
N2188       N  0.56039357  0.79458925  0.68462967     0.74700
O2189       O  0.79681352  0.79720812  0.64211648    -0.38700
O2190       O  0.78004469  0.83599410  0.61358766    -0.38700
O2191       O  0.55138520  0.77442424  0.70853101    -0.39400
O2192       O  0.52700905  0.81292660  0.68183305    -0.39500
C2193       C  0.59206900  0.68966700  0.81063242    -0.11700
C2194       C  0.57826777  0.67477369  0.84679530     0.05300
C2195       C  0.59499326  0.64786282  0.85103684    -0.07000
C2196       C  0.63159096  0.63814831  0.82312952    -0.07800
C2197       C  0.65057290  0.65397324  0.78913175    -0.02300
C2198       C  0.62795297  0.67971478  0.78174609     0.04500
N2199       N  0.64508112  0.69785550  0.74903467     0.67000
H2200       H  0.57892277  0.71033293  0.80654872     0.15900
H2201       H  0.64641599  0.61810514  0.82951790     0.15600
N2202       N  0.57625518  0.63015110  0.88386224     0.74700
O2203       O  0.67766776  0.71594254  0.75780209    -0.38700
O2204       O  0.61444179  0.70281765  0.71980549    -0.38700
O2205       O  0.54567805  0.61112223  0.87492859    -0.39400
O2206       O  0.60142672  0.62824568  0.91702799    -0.39500
C2207       C  0.65434211  0.67511467  0.62473400    -0.11700
C2208       C  0.60224815  0.66795533  0.62778714     0.05300
C2209       C  0.58310681  0.65257877  0.66192927    -0.07000
C2210       C  0.61679093  0.64506262  0.69326440    -0.07800
C2211       C  0.66880615  0.65340549  0.69138871    -0.02300
C2212       C  0.68769003  0.66837123  0.65628577     0.04500
N2213       N  0.73954725  0.67849348  0.65285685     0.67000
H2214       H  0.66879053  0.68748374  0.59862007     0.15900
H2215       H  0.60157550  0.63341550  0.71948572     0.15600
N2216       N  0.52999513  0.64473297  0.66560213     0.74700
O2217       O  0.77002331  0.66734033  0.62740898    -0.38700
O2218       O  0.74764325  0.70303128  0.66143204    -0.38700
O2219       O  0.51829863  0.61981488  0.66735893    -0.39400
O2220       O  0.49775580  0.66176447  0.67854889    -0.39500
C2221       C  0.28732832  0.67354169  0.83054119    -0.11700
C2222       C  0.31908301  0.66190917  0.79965686     0.05300
C2223       C  0.37284276  0.66801204  0.79967371    -0.07000
C2224       C  0.39220178  0.68592503  0.82861676    -0.07800
C2225       C  0.36060669  0.69663167  0.85978288    -0.02300
C2226       C  0.30759342  0.69022031  0.86094958     0.04500
N2227       N  0.27389690  0.70007355  0.89291668     0.67000
H2228       H  0.24628596  0.66923280  0.83199128     0.15900
H2229       H  0.43363295  0.68967950  0.82868220     0.15600
N2230       N  0.41013097  0.65453440  0.77454995     0.74700
O2231       O  0.24988175  0.72185627  0.88662366    -0.38700
O2232       O  0.25844818  0.68405052  0.92174034    -0.38700
O2233       O  0.43254401  0.66826787  0.74589269    -0.39400
O2234       O  0.43586745  0.63625095  0.79230224    -0.39500
C2235       C  0.36280185  0.63830878  0.67177845    -0.11700
C2236       C  0.33764263  0.65395621  0.70225003     0.05300
C2237       C  0.34224739  0.68246099  0.70043666    -0.07000
C2238       C  0.37257242  0.69412188  0.66922841    -0.07800
C2239       C  0.39214268  0.67875928  0.63692317    -0.02300
C2240       C  0.38749388  0.65058759  0.63772165     0.04500
N2241       N  0.40367437  0.63456545  0.60322667     0.67000
H2242       H  0.35893669  0.61654678  0.67186176     0.15900
H2243       H  0.37559596  0.71580929  0.66708216     0.15600
N2244       N  0.30933921  0.70014632  0.72317923     0.74700
O2245       O  0.44433660  0.62079949  0.60562819    -0.38700
O2246       O  0.37171571  0.62928009  0.57520944    -0.38700
O2247       O  0.27301612  0.71099375  0.70338821    -0.39400
O2248       O  0.32841225  0.71315038  0.75280964    -0.39500
loop_ 
_geom_bond_atom_site_label_1 
_geom_bond_atom_site_label_2 
_geom_bond_distance 
_geom_bond_site_symmetry_2 
_ccdc_geom_bond_type 
O1          Zr13   2.418   1_554  S
O1            C3   1.280       .  A
O2          Zr39   2.336       .  S
O2            C3   1.271       .  A
C3          C553   1.429       .  S
O4         Zr578   2.433       .  S
O4            C6   1.285       .  A
O5          Zr40   2.400       .  S
O5            C6   1.282       .  A
C6          C508   1.473       .  S
O7          Zr16   2.414   1_554  S
O7            C9   1.282       .  A
O8          Zr39   2.391       .  S
O8            C9   1.278       .  A
C9          C522   1.438       .  S
O10        Zr575   2.427       .  S
O10          C12   1.283       .  A
O11         Zr40   2.407       .  S
O11          C12   1.283       .  A
C12         C539   1.464       .  S
Zr13        O572   2.426       .  S
Zr13         O14   2.435       .  S
Zr13        O577   2.435   1_556  S
Zr13         O19   2.368   1_556  S
Zr13         O45   2.376   1_556  S
Zr13        O582   2.370       .  S
Zr13        O605   2.367       .  S
O14          H57   0.991       .  S
O15        Zr575   2.437       .  S
O15         H618   0.990       .  S
O15         H622   0.990       .  S
Zr16        O566   2.426       .  S
Zr16         O17   2.438       .  S
Zr16        O580   2.436       .  S
Zr16         O19   2.359   1_556  S
Zr16         O44   2.385   1_556  S
Zr16        O582   2.367       .  S
Zr16        O608   2.374       .  S
O17          H61   0.990       .  S
O17         H620   0.990   1_556  S
O18        Zr578   2.437       .  S
O18         H613   0.990       .  S
O19         Zr39   2.368       .  S
O20         Zr40   2.367       .  S
O20        Zr575   2.369       .  S
O20        Zr578   2.361       .  S
O20          H47   0.963       .  S
O21         Zr33   2.438       .  S
O21          C23   1.288       .  A
O22         Zr40   2.372       .  S
O22          C23   1.276       .  A
C23         C452   1.447       .  S
O24        Zr598   2.432   1_554  S
O24          C26   1.288       .  A
O25         Zr39   2.387       .  S
O25          C26   1.277       .  A
C26         C494   1.470       .  S
O27         Zr36   2.427       .  S
O27          C29   1.284       .  A
O28         Zr40   2.391       .  S
O28          C29   1.279       .  A
C29         C480   1.447       .  S
O30        Zr595   2.456       .  S
O30          C32   1.292       .  A
O31         Zr39   2.419       .  S
O31          C32   1.283       .  A
C32         C466   1.489       .  S
Zr33        O592   2.458       .  S
Zr33         O35   2.435       .  S
Zr33        O596   2.437       .  S
Zr33         O41   2.365       .  S
Zr33         O43   2.379       .  S
Zr33        O607   2.373       .  S
Zr33        O604   2.257       .  S
O34        Zr595   2.437       .  S
O34         H616   0.990       .  S
O34         H621   0.990   1_554  S
O35          H55   0.990       .  S
Zr36        O586   2.431       .  S
Zr36         O37   2.434       .  S
Zr36        O600   2.436       .  S
Zr36         O41   2.370       .  S
Zr36         O46   2.372       .  S
Zr36        O606   2.365       .  S
Zr36        O604   2.261       .  S
O37         H615   0.990       .  S
O38        Zr598   2.436       .  S
O38         H614   0.990       .  S
O38         H624   0.990   1_556  S
Zr39         O44   2.379       .  S
Zr39         O45   2.379       .  S
Zr39         O42   2.243       .  S
Zr40         O41   2.386       .  S
Zr40         O43   2.381       .  S
Zr40         O46   2.375       .  S
O41          H49   0.958       .  S
O42        Zr595   2.260       .  S
O42        Zr598   2.261   1_554  S
O43        Zr575   2.362       .  S
O44        Zr598   2.361   1_554  S
O44          H48   0.966       .  S
O45        Zr595   2.376       .  S
O45          H50   0.952       .  S
O46        Zr578   2.375       .  S
H51         O580   0.990       .  S
H52         O600   0.990       .  S
H53         O599   0.990   1_556  S
H54         O596   0.990       .  S
H56         O577   0.990       .  S
H58         O579   0.990       .  S
H59         O596   0.990       .  S
H60         O577   0.990   1_556  S
H62         O600   0.990       .  S
O63         Zr75   2.456   1_554  S
O63          C65   1.292       .  A
O64        Zr101   2.416       .  S
O64          C65   1.286       .  A
C65         C438   1.488       .  S
O66        Zr640   2.465       .  S
O66          C68   1.293       .  A
O67        Zr102   2.446       .  S
O67          C68   1.290       .  A
C68         C413   1.510       .  S
O69         Zr78   2.458   1_554  S
O69          C71   1.290       .  A
O70        Zr101   2.459       .  S
O70          C71   1.294       .  A
C71         C396   1.488       .  S
O72        Zr637   2.462       .  S
O72          C74   1.290       .  A
O73        Zr102   2.467       .  S
O73          C74   1.294       .  A
C74         C427   1.499       .  S
Zr75        O634   2.463       .  S
Zr75         O76   2.434       .  S
Zr75        O639   2.437       .  S
Zr75         O81   2.387   1_556  S
Zr75        O107   2.366   1_556  S
Zr75        O644   2.378       .  S
Zr75        O667   2.366       .  S
O76         H119   0.990   1_556  S
O77        Zr637   2.437       .  S
O77         H680   0.990       .  S
O77         H684   0.990       .  S
Zr78        O628   2.470       .  S
Zr78         O79   2.437       .  S
Zr78        O642   2.433       .  S
Zr78         O81   2.385   1_556  S
Zr78        O106   2.373   1_556  S
Zr78        O644   2.378       .  S
Zr78        O670   2.363       .  S
O79         H123   0.990       .  S
O79         H682   0.990   1_556  S
O80        Zr640   2.433       .  S
O80         H675   0.990       .  S
O81        Zr101   2.407       .  S
O82        Zr102   2.395       .  S
O82        Zr637   2.378       .  S
O82        Zr640   2.373       .  S
O82         H109   0.969       .  S
O83         Zr95   2.442       .  S
O83          C85   1.288       .  A
O84       Zr1226   2.449   1_545  S
O84          C85   1.291       .  A
C85         C382   1.480       .  S
O86        Zr660   2.438   1_554  S
O86          C88   1.286       .  A
O87       Zr1225   2.468   1_545  S
O87          C88   1.297       .  A
C88         C354   1.501       .  S
O89         Zr98   2.405       .  S
O89          C91   1.279       .  A
O90       Zr1226   2.478   1_545  S
O90          C91   1.297       .  A
C91         C343   1.499       .  S
O92        Zr657   2.497   1_554  S
O92          C94   1.297       .  A
O93       Zr1225   2.463   1_545  S
O93          C94   1.295       .  A
C94         C368   1.515       .  S
Zr95        O654   2.494       .  S
Zr95        O658   2.436       .  S
Zr95        O659   2.433       .  S
Zr95        O103   2.386       .  S
Zr95        O666   2.374       .  S
Zr95       O1793   2.349   1_545  S
Zr95       O1229   2.382   1_545  S
O96        Zr657   2.435       .  S
O96         H678   0.989       .  S
O96         H683   0.990   1_556  S
O97        Zr657   2.433       .  S
O97         H679   0.990       .  S
Zr98        O648   2.436       .  S
Zr98         O99   2.431       .  S
Zr98        O662   2.432       .  S
Zr98        O103   2.384       .  S
Zr98        O666   2.375       .  S
Zr98       O1232   2.369   1_545  S
Zr98       O1792   2.347   1_545  S
O99         H677   0.990       .  S
O100       Zr660   2.440       .  S
O100        H676   0.989   1_556  S
O100        H686   0.990       .  S
Zr101      O1211   2.465       .  S
Zr101      O1217   2.462       .  S
Zr101       O106   2.375       .  S
Zr101       O107   2.395       .  S
Zr101      O1228   2.386       .  S
Zr102      O1208   2.444       .  S
Zr102      O1214   2.478       .  S
Zr102       O105   2.393       .  S
Zr102       O108   2.381       .  S
Zr102      O1227   2.413       .  S
O103      Zr1226   2.410   1_545  S
O103        H111   0.960       .  S
O104       Zr657   2.371   1_554  S
O104       Zr660   2.374   1_554  S
O104      Zr1225   2.383   1_545  S
O105       Zr637   2.370       .  S
O105      Zr1219   2.384       .  S
O106      Zr1784   2.350   1_554  S
O106        H110   0.965       .  S
O107      Zr1781   2.352   1_554  S
O107        H112   0.956       .  S
O108       Zr640   2.362       .  S
O108      Zr1222   2.371       .  S
H113        O642   0.990       .  S
H114        O662   0.990       .  S
H115        O661   0.990       .  S
H116        O658   0.990       .  S
H117        O659   0.990       .  S
H118        O639   0.990   1_554  S
H120        O641   0.990       .  S
H121        O658   0.990       .  S
H122        O639   0.990   1_554  S
H124        O662   0.988       .  S
O125       Zr137   2.470   1_554  S
O125        C127   1.292       .  A
O126       Zr163   2.443   1_655  S
O126        C127   1.292       .  A
C127        C326   1.499       .  S
O128       Zr702   2.460       .  S
O128        C130   1.293       .  A
O129       Zr164   2.439   1_655  S
O129        C130   1.288       .  A
C130        C301   1.489       .  S
O131       Zr140   2.464   1_554  S
O131        C133   1.293       .  A
O132       Zr163   2.450   1_655  S
O132        C133   1.292       .  A
C133        C287   1.494       .  S
O134       Zr699   2.442       .  S
O134        C136   1.289       .  A
O135       Zr164   2.448   1_655  S
O135        C136   1.290       .  A
C136        C315   1.480       .  S
Zr137       O696   2.439       .  S
Zr137       O138   2.436   1_556  S
Zr137       O701   2.435       .  S
Zr137       O143   2.377   1_556  S
Zr137       O169   2.366   1_656  S
Zr137       O706   2.383       .  S
Zr137       O729   2.379   1_655  S
O138        H181   0.990       .  S
O139       Zr699   2.435       .  S
O139        H742   0.990       .  S
O139        H746   0.990       .  S
Zr140       O690   2.460       .  S
Zr140       O141   2.435   1_556  S
Zr140       O704   2.433   1_556  S
Zr140       O143   2.386   1_556  S
Zr140       O168   2.364   1_656  S
Zr140       O706   2.373       .  S
Zr140       O732   2.373   1_655  S
O141        H185   0.990       .  S
O141        H744   0.990       .  S
O142       Zr702   2.432       .  S
O142        H737   0.990       .  S
O143       Zr163   2.395   1_655  S
O144       Zr164   2.398   1_655  S
O144       Zr699   2.386       .  S
O144       Zr702   2.371       .  S
O144        H171   0.970       .  S
O145       Zr157   2.485       .  S
O145        C147   1.297       .  A
O146       Zr164   2.428       .  S
O146        C147   1.287       .  A
C147        C245   1.497       .  S
O148       Zr722   2.456   1_554  S
O148        C150   1.293       .  A
O149       Zr163   2.456       .  S
O149        C150   1.290       .  A
C150        C270   1.495       .  S
O151       Zr160   2.479       .  S
O151        C153   1.294       .  A
O152       Zr164   2.448       .  S
O152        C153   1.292       .  A
C153        C259   1.506       .  S
O154       Zr719   2.478   1_554  S
O154        C156   1.295       .  A
O155       Zr163   2.458       .  S
O155        C156   1.293       .  A
C156        C231   1.496       .  S
Zr157       O716   2.475       .  S
Zr157       O158   2.435       .  S
Zr157       O721   2.434       .  S
Zr157       O165   2.379       .  S
Zr157       O167   2.371       .  S
Zr157       O728   2.388       .  S
Zr157       O731   2.377       .  S
O158        H178   0.990       .  S
O158        H183   0.990       .  S
O159       Zr719   2.434       .  S
O159        H741   0.990       .  S
Zr160       O710   2.450       .  S
Zr160       O161   2.435       .  S
Zr160       O724   2.435       .  S
Zr160       O165   2.376       .  S
Zr160       O170   2.367       .  S
Zr160       O728   2.387       .  S
Zr160       O730   2.370       .  S
O161        H739   0.990       .  S
O162       Zr722   2.435   1_554  S
O162        H738   0.990   1_554  S
O162        H748   0.990   1_554  S
Zr163       O166   2.403       .  S
Zr163       O168   2.395       .  S
Zr163       O169   2.395       .  S
Zr164       O165   2.391       .  S
Zr164       O167   2.392       .  S
Zr164       O170   2.383       .  S
O165        H173   0.981       .  S
O166       Zr719   2.389   1_554  S
O166       Zr722   2.385   1_554  S
O167       Zr699   2.378   1_455  S
O168       Zr722   2.367   1_554  S
O168        H172   0.968       .  S
O169       Zr719   2.374   1_554  S
O169        H174   0.966       .  S
O170       Zr702   2.373   1_455  S
H175        O704   0.990   1_556  S
H176        O724   0.990       .  S
H177        O723   0.990   1_554  S
H179        O721   0.990       .  S
H180        O701   0.990   1_554  S
H182        O703   0.990       .  S
H184        O701   0.990       .  S
H186        O724   0.990       .  S
C187        H188   1.090       .  S
C187        C193   1.543       .  S
C187        C192   1.553       .  S
C187        C191   1.536       .  S
C189        H190   1.111       .  S
C189        C195   1.550       .  S
C189        C194   1.538       .  S
C189        C196   1.559       .  S
C191        C194   1.372       .  D
C191        C550   1.454       .  S
C192        C195   1.394       .  D
C192        C273   1.539       .  S
C193        C196   1.388       .  D
C193        C371   1.539       .  S
C194        C536   1.497       .  S
C195        C256   1.519       .  S
C196        C385   1.503       .  S
C197        H198   1.108       .  S
C197        C203   1.558       .  S
C197        C202   1.551       .  S
C197        C201   1.519       .  S
C199        H200   1.096       .  S
C199        C205   1.567       .  S
C199        C204   1.551       .  S
C199        C206   1.529       .  S
C201        C204   1.376       .  D
C201        C525   1.464       .  S
C202        C205   1.383       .  D
C202        C357   1.528       .  S
C203        C206   1.380       .  D
C203        C284   1.500       .  S
C204        C511   1.500       .  S
C205        C340   1.517       .  S
C206        C298   1.518       .  S
C207        H208   1.107       .  S
C207        C213   1.545       .  S
C207        C212   1.565       .  S
C207        C211   1.544       .  S
C209        H210   1.108       .  S
C209        C215   1.546       .  S
C209        C214   1.540       .  S
C209        C216   1.554       .  S
C211        C214   1.379       .  D
C211        C469   1.504       .  S
C212        C215   1.392       .  D
C212        C441   1.509       .  S
C213        C216   1.372       .  D
C213        C228   1.512       .  S
C214        C455   1.484       .  S
C215        C424   1.520       .  S
C216        C242   1.499       .  S
C217        H218   1.101       .  S
C217        C223   1.542       .  S
C217        C222   1.547       .  S
C217        C221   1.547       .  S
C219        H220   1.098       .  S
C219        C225   1.554       .  S
C219        C224   1.533       .  S
C219        C226   1.560       .  S
C221        C224   1.386       .  D
C221        C483   1.484       .  S
C222        C225   1.387       .  D
C222        C410   1.542       .  S
C223        C226   1.385       .  D
C223        C312   1.515       .  S
C224        C497   1.501       .  S
C225        C399   1.507       .  S
C226        C329   1.511       .  S
C227        C228   1.404       .  A
C227        C232   1.415       .  A
C227        H234   1.084       .  S
C228        C229   1.415       .  A
C229        C230   1.404       .  A
C229        N236   1.420       .  S
C230        C231   1.396       .  A
C230        H235   1.084       .  S
C231        C232   1.416       .  A
C232        N233   1.424       .  S
N233        O237   1.261       .  A
N233        O238   1.261       .  A
N236        O240   1.262       .  A
N236        O239   1.261       .  A
C241        C242   1.404       .  A
C241        C246   1.408       .  A
C241        H248   1.081       .  S
C242        C243   1.405       .  A
C243        C244   1.408       .  A
C243        N250   1.428       .  S
C244        C245   1.407       .  A
C244        H249   1.083       .  S
C245        C246   1.417       .  A
C246        N247   1.428       .  S
N247        O251   1.262       .  A
N247        O252   1.262       .  A
N250        O254   1.260       .  A
N250        O253   1.263       .  A
C255        C256   1.410       .  A
C255        C260   1.413       .  A
C255        H262   1.084       .  S
C256        C257   1.423       .  A
C257        C258   1.408       .  A
C257        N264   1.424       .  S
C258        C259   1.400       .  A
C258        H263   1.082       .  S
C259        C260   1.415       .  A
C260        N261   1.428       .  S
N261        O265   1.261       .  A
N261        O266   1.261       .  A
N264        O268   1.260       .  A
N264        O267   1.261       .  A
C269        C270   1.386       .  A
C269        C274   1.393       .  A
C269        H276   1.086       .  S
C270        C271   1.415       .  A
C271        C272   1.422       .  A
C271        N278   1.429       .  S
C272        C273   1.419       .  A
C272        H277   1.082       .  S
C273        C274   1.439       .  A
C274        N275   1.427       .  S
N275        O279   1.263       .  A
N275        O280   1.261       .  A
N278        O282   1.262       .  A
N278        O281   1.262       .  A
C283        C284   1.400       .  A
C283        C288   1.402       .  A
C283        H290   1.084       .  S
C284        C285   1.421       .  A
C285        C286   1.410       .  A
C285        N292   1.431       .  S
C286        C287   1.405       .  A
C286        H291   1.084       .  S
C287        C288   1.414       .  A
C288        N289   1.427       .  S
N289        O293   1.262       .  A
N289        O294   1.262       .  A
N292        O296   1.259       .  A
N292        O295   1.262       .  A
C297        C298   1.410       .  A
C297        C302   1.413       .  A
C297        H304   1.083       .  S
C298        C299   1.427       .  A
C299        C300   1.396       .  A
C299        N306   1.428       .  S
C300        C301   1.394       .  A
C300        H305   1.085       .  S
C301        C302   1.414       .  A
C302        N303   1.427       .  S
N303        O307   1.261       .  A
N303        O308   1.262       .  A
N306        O310   1.260       .  A
N306        O309   1.263       .  A
C311        C312   1.411       .  A
C311        C316   1.389       .  A
C311        H318   1.076       .  S
C312        C313   1.420       .  A
C313        C314   1.418       .  A
C313        N320   1.429       .  S
C314        C315   1.409       .  A
C314        H319   1.084       .  S
C315        C316   1.401       .  A
C316        N317   1.430       .  S
N317        O321   1.262       .  A
N317        O322   1.262       .  A
N320        O324   1.262       .  A
N320        O323   1.262       .  A
C325        C326   1.399       .  A
C325        C330   1.403       .  A
C325        H332   1.085       .  S
C326        C327   1.416       .  A
C327        C328   1.411       .  A
C327        N334   1.427       .  S
C328        C329   1.406       .  A
C328        H333   1.084       .  S
C329        C330   1.422       .  A
C330        N331   1.422       .  S
N331        O335   1.259       .  A
N331        O336   1.262       .  A
N334        O338   1.261       .  A
N334        O337   1.261       .  A
C339        C340   1.395       .  A
C339        C344   1.388       .  A
C339        H346   1.083       .  S
C340        C341   1.416       .  A
C341        C342   1.417       .  A
C341        N348   1.437       .  S
C342        C343   1.409       .  A
C342        H347   1.078       .  S
C343        C344   1.423       .  A
C344        N345   1.428       .  S
N345        O349   1.261       .  A
N345        O350   1.261       .  A
N348        O352   1.262       .  A
N348        O351   1.263       .  A
C353        C354   1.394       .  A
C353        C358   1.410       .  A
C353        H360   1.083       .  S
C354        C355   1.415       .  A
C355        C356   1.407       .  A
C355        N362   1.428       .  S
C356        C357   1.407       .  A
C356        H361   1.084       .  S
C357        C358   1.445       .  A
C358        N359   1.439       .  S
N359        O363   1.251       .  A
N359        O364   1.264       .  A
N362        O366   1.261       .  A
N362        O365   1.262       .  A
C367        C368   1.399       .  A
C367        C372   1.413       .  A
C367        H374   1.084       .  S
C368        C369   1.416       .  A
C369        C370   1.417       .  A
C369        N376   1.427       .  S
C370        C371   1.413       .  A
C370        H375   1.084       .  S
C371        C372   1.429       .  A
C372        N373   1.419       .  S
N373        O377   1.258       .  A
N373        O378   1.261       .  A
N376        O380   1.261       .  A
N376       O1503   1.262       .  A
O379       N1500   1.262       .  A
C381        C382   1.414       .  A
C381        C386   1.420       .  A
C381        H388   1.083       .  S
C382        C383   1.401       .  A
C383        C384   1.384       .  A
C383        N390   1.428       .  S
C384        C385   1.405       .  A
C384        H389   1.070       .  S
C385        C386   1.411       .  A
C386        N387   1.428       .  S
N387        O391   1.261       .  A
N387        O392   1.262       .  A
N390        O394   1.262       .  A
N390        O393   1.259       .  A
C395        C396   1.394       .  A
C395        C400   1.408       .  A
C395        H402   1.084       .  S
C396        C397   1.411       .  A
C397        C398   1.409       .  A
C397        N404   1.424       .  S
C398        C399   1.402       .  A
C398        H403   1.084       .  S
C399        C400   1.431       .  A
C400        N401   1.433       .  S
N401        O405   1.260       .  A
N401        O406   1.262       .  A
N404        O408   1.262       .  A
N404        O407   1.261       .  A
C409        C410   1.413       .  A
C409        C414   1.407       .  A
C409        H416   1.066       .  S
C410        C411   1.425       .  A
C411        C412   1.409       .  A
C411        N418   1.432       .  S
C412        C413   1.408       .  A
C412        H417   1.083       .  S
C413        C414   1.415       .  A
C414        N415   1.429       .  S
N415        O419   1.260       .  A
N415        O420   1.260       .  A
N418        O422   1.263       .  A
N418        O421   1.262       .  A
C423        C424   1.409       .  A
C423        C428   1.405       .  A
C423        H430   1.076       .  S
C424        C425   1.417       .  A
C425        C426   1.418       .  A
C425        N432   1.429       .  S
C426        C427   1.409       .  A
C426        H431   1.084       .  S
C427        C428   1.409       .  A
C428        N429   1.430       .  S
N429        O433   1.262       .  A
N429        O434   1.261       .  A
N432        O436   1.262       .  A
N432        O435   1.262       .  A
C437        C438   1.407       .  A
C437        C442   1.400       .  A
C437        H444   1.083       .  S
C438        C439   1.414       .  A
C439        C440   1.397       .  A
C439        N446   1.430       .  S
C440        C441   1.408       .  A
C440        H445   1.067       .  S
C441        C442   1.414       .  A
C442        N443   1.432       .  S
N443        O447   1.262       .  A
N443        O448   1.262       .  A
N446        O450   1.262       .  A
N446        O449   1.262       .  A
C451        C452   1.391       .  A
C451        C456   1.385       .  A
C451        H458   1.086       .  S
C452        C453   1.405       .  A
C453        C454   1.392       .  A
C453        N460   1.430       .  S
C454        C455   1.407       .  A
C454        H459   1.081       .  S
C455        C456   1.413       .  A
C456        N457   1.424       .  S
N457        O461   1.261       .  A
N457        O462   1.262       .  A
N460        O464   1.261       .  A
N460        O463   1.262       .  A
C465        C466   1.399       .  A
C465        C470   1.401       .  A
C465        H472   1.084       .  S
C466        C467   1.416       .  A
C467        C468   1.403       .  A
C467        N474   1.423       .  S
C468        C469   1.400       .  A
C468        H473   1.083       .  S
C469        C470   1.411       .  A
C470        N471   1.426       .  S
N471        O475   1.261       .  A
N471        O476   1.262       .  A
N474        O478   1.260       .  A
N474        O477   1.262       .  A
C479        C480   1.392       .  A
C479        C484   1.393       .  A
C479        H486   1.085       .  S
C480        C481   1.401       .  A
C481        C482   1.388       .  A
C481        N488   1.431       .  S
C482        C483   1.406       .  A
C482        H487   1.083       .  S
C483        C484   1.418       .  A
C484        N485   1.424       .  S
N485        O489   1.263       .  A
N485        O490   1.261       .  A
N488        O492   1.261       .  A
N488        O491   1.262       .  A
C493        C494   1.391       .  A
C493        C498   1.389       .  A
C493        H500   1.085       .  S
C494        C495   1.407       .  A
C495        C496   1.396       .  A
C495        N502   1.427       .  S
C496        C497   1.408       .  A
C496        H501   1.078       .  S
C497        C498   1.428       .  A
C498        N499   1.428       .  S
N499        O503   1.261       .  A
N499        O504   1.263       .  A
N502        O506   1.261       .  A
N502        O505   1.262       .  A
C507        C508   1.403       .  A
C507        C512   1.398       .  A
C507        H514   1.084       .  S
C508        C509   1.404       .  A
C509        C510   1.387       .  A
C509        N516   1.430       .  S
C510        C511   1.408       .  A
C510        H515   1.081       .  S
C511        C512   1.420       .  A
C512        N513   1.428       .  S
N513        O517   1.260       .  A
N513        O518   1.262       .  A
N516        O520   1.260       .  A
N516        O519   1.261       .  A
C521        C522   1.389       .  A
C521        C526   1.381       .  A
C521        H528   1.086       .  S
C522        C523   1.402       .  A
C523        C524   1.391       .  A
C523        N530   1.425       .  S
C524        C525   1.401       .  A
C524        H529   1.076       .  S
C525        C526   1.413       .  A
C526        N527   1.427       .  S
N527        O531   1.262       .  A
N527        O532   1.262       .  A
N530        O534   1.260       .  A
N530        O533   1.262       .  A
C535        C536   1.408       .  A
C535        C540   1.394       .  A
C535        H542   1.080       .  S
C536        C537   1.422       .  A
C537        C538   1.393       .  A
C537        N544   1.424       .  S
C538        C539   1.395       .  A
C538        H543   1.085       .  S
C539        C540   1.403       .  A
C540        N541   1.428       .  S
N541        O545   1.262       .  A
N541        O546   1.262       .  A
N544        O548   1.261       .  A
N544        O547   1.261       .  A
C549        C550   1.410       .  A
C549        C554   1.385       .  A
C549        H556   1.077       .  S
C550        C551   1.407       .  A
C551        C552   1.374       .  A
C551        N558   1.425       .  S
C552        C553   1.389       .  A
C552        H557   1.075       .  S
C553        C554   1.395       .  A
C554        N555   1.430       .  S
N555        O559   1.261       .  A
N555        O560   1.262       .  A
N558        O562   1.262       .  A
N558        O561   1.262       .  A
O563       Zr575   2.406       .  S
O563        C565   1.278       .  A
O564       Zr601   2.333       .  S
O564        C565   1.271       .  A
C565       C1115   1.418       .  S
O566        C568   1.284       .  A
O567       Zr602   2.411       .  S
O567        C568   1.284       .  A
C568       C1070   1.475       .  S
O569       Zr578   2.413       .  S
O569        C571   1.282       .  A
O570       Zr601   2.404       .  S
O570        C571   1.281       .  A
C571       C1084   1.442       .  S
O572        C574   1.283       .  A
O573       Zr602   2.394       .  S
O573        C574   1.282       .  A
C574       C1101   1.459       .  S
Zr575       O576   2.434       .  S
Zr575       O581   2.369       .  S
Zr575       O607   2.379       .  S
O576        H619   0.991       .  S
Zr578       O579   2.435       .  S
Zr578       O581   2.358       .  S
Zr578       O606   2.388       .  S
O579        H623   0.989       .  S
O581       Zr601   2.369       .  S
O582       Zr602   2.370       .  S
O582        H609   0.963       .  S
O583       Zr595   2.445   1_556  S
O583        C585   1.290       .  A
O584       Zr602   2.376       .  S
O584        C585   1.276       .  A
C585       C1014   1.451       .  S
O586        C588   1.287       .  A
O587       Zr601   2.389       .  S
O587        C588   1.277       .  A
C588       C1056   1.469       .  S
O589       Zr598   2.426       .  S
O589        C591   1.284       .  A
O590       Zr602   2.389       .  S
O590        C591   1.279       .  A
C591       C1042   1.448       .  S
O592        C594   1.292       .  A
O593       Zr601   2.422       .  S
O593        C594   1.283       .  A
C594       C1028   1.492       .  S
Zr595       O597   2.434       .  S
Zr595       O603   2.364   1_554  S
Zr595       O605   2.375   1_554  S
O597        H617   0.990   1_554  S
Zr598       O599   2.434   1_556  S
Zr598       O603   2.368       .  S
Zr598       O608   2.373       .  S
Zr601       O606   2.381       .  S
Zr601       O607   2.383       .  S
Zr601       O604   2.244       .  S
Zr602       O603   2.385       .  S
Zr602       O605   2.380       .  S
Zr602       O608   2.374       .  S
O603        H611   0.960       .  S
O606        H610   0.965       .  S
O607        H612   0.948       .  S
O625       Zr637   2.460       .  S
O625        C627   1.292       .  A
O626       Zr663   2.427       .  S
O626        C627   1.288       .  A
C627       C1000   1.492       .  S
O628        C630   1.294       .  A
O629       Zr664   2.450       .  S
O629        C630   1.291       .  A
C630        C975   1.513       .  S
O631       Zr640   2.448       .  S
O631        C633   1.288       .  A
O632       Zr663   2.465       .  S
O632        C633   1.296       .  A
C633        C958   1.486       .  S
O634        C636   1.291       .  A
O635       Zr664   2.467       .  S
O635        C636   1.295       .  A
C636        C989   1.500       .  S
Zr637       O638   2.434       .  S
Zr637       O643   2.384       .  S
Zr637       O669   2.368       .  S
O638        H681   0.990       .  S
Zr640       O641   2.435       .  S
Zr640       O643   2.386       .  S
Zr640       O668   2.375       .  S
O641        H685   0.990       .  S
O643       Zr663   2.408       .  S
O644       Zr664   2.394       .  S
O644        H671   0.971       .  S
O645       Zr657   2.442       .  S
O645        C647   1.288       .  A
O646      Zr1788   2.441   1_545  S
O646        C647   1.290       .  A
C647        C944   1.476       .  S
O648        C650   1.285       .  A
O649      Zr1787   2.462   1_545  S
O649        C650   1.296       .  A
C650        C916   1.496       .  S
O651       Zr660   2.395       .  S
O651        C653   1.277       .  A
O652      Zr1788   2.482   1_545  S
O652        C653   1.298       .  A
C653        C905   1.497       .  S
O654        C656   1.297       .  A
O655      Zr1787   2.451   1_545  S
O655        C656   1.293       .  A
C656        C930   1.508       .  S
Zr657       O665   2.386       .  S
Zr657      O1231   2.353   1_546  S
Zr657      O1791   2.384   1_545  S
Zr660       O661   2.434       .  S
Zr660       O665   2.387       .  S
Zr660      O1794   2.370   1_545  S
Zr660      O1230   2.350   1_546  S
Zr663      O1773   2.462       .  S
Zr663      O1779   2.463       .  S
Zr663      O1790   2.386       .  S
Zr663       O668   2.377       .  S
Zr663       O669   2.395       .  S
Zr664      O1770   2.447       .  S
Zr664      O1776   2.473       .  S
Zr664      O1789   2.414       .  S
Zr664       O667   2.391       .  S
Zr664       O670   2.382       .  S
O665      Zr1788   2.413   1_545  S
O665        H673   0.960       .  S
O666      Zr1787   2.387   1_545  S
O667      Zr1781   2.382       .  S
O668      Zr1222   2.346       .  S
O668        H672   0.964       .  S
O669      Zr1219   2.346       .  S
O669        H674   0.955       .  S
O670      Zr1784   2.370       .  S
O687       Zr699   2.471       .  S
O687        C689   1.292       .  A
O688       Zr725   2.447   1_655  S
O688        C689   1.292       .  A
C689        C888   1.503       .  S
O690        C692   1.293       .  A
O691       Zr726   2.443   1_655  S
O691        C692   1.289       .  A
C692        C863   1.491       .  S
O693       Zr702   2.464       .  S
O693        C695   1.292       .  A
O694       Zr725   2.459   1_655  S
O694        C695   1.293       .  A
C695        C849   1.498       .  S
O696        C698   1.287       .  A
O697       Zr726   2.452   1_655  S
O697        C698   1.291       .  A
C698        C877   1.480       .  S
Zr699       O700   2.435       .  S
Zr699       O705   2.379       .  S
Zr699       O731   2.364   1_655  S
O700        H743   0.990       .  S
Zr702       O703   2.435       .  S
Zr702       O705   2.383       .  S
Zr702       O730   2.365   1_655  S
O703        H747   0.990       .  S
O705       Zr725   2.393   1_655  S
O706       Zr726   2.398   1_655  S
O706        H733   0.970       .  S
O707       Zr719   2.485       .  S
O707        C709   1.297       .  A
O708       Zr726   2.435       .  S
O708        C709   1.288       .  A
C709        C807   1.500       .  S
O710        C712   1.293       .  A
O711       Zr725   2.450       .  S
O711        C712   1.289       .  A
C712        C832   1.492       .  S
O713       Zr722   2.474       .  S
O713        C715   1.293       .  A
O714       Zr726   2.451       .  S
O714        C715   1.293       .  A
C715        C821   1.507       .  S
O716        C718   1.294       .  A
O717       Zr725   2.461       .  S
O717        C718   1.293       .  A
C718        C793   1.495       .  S
Zr719       O720   2.436       .  S
Zr719       O727   2.380       .  S
Zr719       O729   2.372       .  S
O720        H740   0.990       .  S
O720        H745   0.990   1_556  S
Zr722       O723   2.435       .  S
Zr722       O727   2.378       .  S
Zr722       O732   2.371       .  S
Zr725       O728   2.405       .  S
Zr725       O730   2.398       .  S
Zr725       O731   2.395       .  S
Zr726       O727   2.393       .  S
Zr726       O729   2.392       .  S
Zr726       O732   2.385       .  S
O727        H735   0.980       .  S
O730        H734   0.969       .  S
O731        H736   0.966       .  S
C749        H750   1.086       .  S
C749        C755   1.536       .  S
C749        C754   1.553       .  S
C749        C753   1.533       .  S
C751        H752   1.111       .  S
C751        C757   1.551       .  S
C751        C756   1.538       .  S
C751        C758   1.557       .  S
C753        C756   1.370       .  D
C753       C1112   1.450       .  S
C754        C757   1.399       .  D
C754        C835   1.540       .  S
C755        C758   1.383       .  D
C755        C933   1.533       .  S
C756       C1098   1.494       .  S
C757        C818   1.522       .  S
C758        C947   1.499       .  S
C759        H760   1.108       .  S
C759        C765   1.557       .  S
C759        C764   1.549       .  S
C759        C763   1.520       .  S
C761        H762   1.096       .  S
C761        C767   1.567       .  S
C761        C766   1.552       .  S
C761        C768   1.530       .  S
C763        C766   1.375       .  D
C763       C1087   1.464       .  S
C764        C767   1.382       .  D
C764        C919   1.524       .  S
C765        C768   1.381       .  D
C765        C846   1.503       .  S
C766       C1073   1.501       .  S
C767        C902   1.516       .  S
C768        C860   1.517       .  S
C769        H770   1.107       .  S
C769        C775   1.544       .  S
C769        C774   1.564       .  S
C769        C773   1.546       .  S
C771        H772   1.109       .  S
C771        C777   1.549       .  S
C771        C776   1.540       .  S
C771        C778   1.555       .  S
C773        C776   1.379       .  D
C773       C1031   1.505       .  S
C774        C777   1.392       .  D
C774       C1003   1.512       .  S
C775        C778   1.372       .  D
C775        C790   1.508       .  S
C776       C1017   1.486       .  S
C777        C986   1.519       .  S
C778        C804   1.505       .  S
C779        H780   1.103       .  S
C779        C785   1.543       .  S
C779        C784   1.548       .  S
C779        C783   1.548       .  S
C781        H782   1.102       .  S
C781        C787   1.556       .  S
C781        C786   1.533       .  S
C781        C788   1.561       .  S
C783        C786   1.383       .  D
C783       C1045   1.485       .  S
C784        C787   1.387       .  D
C784        C972   1.544       .  S
C785        C788   1.385       .  D
C785        C874   1.511       .  S
C786       C1059   1.497       .  S
C787        C961   1.504       .  S
C788        C891   1.517       .  S
C789        C790   1.405       .  A
C789        C794   1.415       .  A
C789        H796   1.084       .  S
C790        C791   1.415       .  A
C791        C792   1.404       .  A
C791        N798   1.423       .  S
C792        C793   1.397       .  A
C792        H797   1.084       .  S
C793        C794   1.417       .  A
C794        N795   1.427       .  S
N795        O799   1.261       .  A
N795        O800   1.262       .  A
N798        O802   1.262       .  A
N798        O801   1.261       .  A
C803        C804   1.406       .  A
C803        C808   1.410       .  A
C803        H810   1.080       .  S
C804        C805   1.405       .  A
C805        C806   1.409       .  A
C805        N812   1.428       .  S
C806        C807   1.408       .  A
C806        H811   1.083       .  S
C807        C808   1.417       .  A
C808        N809   1.429       .  S
N809        O813   1.262       .  A
N809        O814   1.262       .  A
N812        O816   1.260       .  A
N812        O815   1.263       .  A
C817        C818   1.410       .  A
C817        C822   1.413       .  A
C817        H824   1.084       .  S
C818        C819   1.425       .  A
C819        C820   1.407       .  A
C819        N826   1.423       .  S
C820        C821   1.399       .  A
C820        H825   1.083       .  S
C821        C822   1.415       .  A
C822        N823   1.427       .  S
N823        O827   1.261       .  A
N823        O828   1.262       .  A
N826        O830   1.260       .  A
N826        O829   1.261       .  A
C831        C832   1.384       .  A
C831        C836   1.391       .  A
C831        H838   1.086       .  S
C832        C833   1.412       .  A
C833        C834   1.421       .  A
C833        N840   1.427       .  S
C834        C835   1.419       .  A
C834        H839   1.081       .  S
C835        C836   1.441       .  A
C836        N837   1.427       .  S
N837        O841   1.263       .  A
N837        O842   1.261       .  A
N840        O844   1.262       .  A
N840        O843   1.261       .  A
C845        C846   1.401       .  A
C845        C850   1.403       .  A
C845        H852   1.084       .  S
C846        C847   1.423       .  A
C847        C848   1.412       .  A
C847        N854   1.432       .  S
C848        C849   1.405       .  A
C848        H853   1.084       .  S
C849        C850   1.415       .  A
C850        N851   1.428       .  S
N851        O855   1.262       .  A
N851        O856   1.261       .  A
N854        O858   1.259       .  A
N854        O857   1.262       .  A
C859        C860   1.410       .  A
C859        C864   1.412       .  A
C859        H866   1.083       .  S
C860        C861   1.427       .  A
C861        C862   1.398       .  A
C861        N868   1.429       .  S
C862        C863   1.396       .  A
C862        H867   1.085       .  S
C863        C864   1.414       .  A
C864        N865   1.427       .  S
N865        O869   1.262       .  A
N865        O870   1.262       .  A
N868        O872   1.260       .  A
N868        O871   1.263       .  A
C873        C874   1.410       .  A
C873        C878   1.390       .  A
C873        H880   1.078       .  S
C874        C875   1.418       .  A
C875        C876   1.417       .  A
C875        N882   1.428       .  S
C876        C877   1.408       .  A
C876        H881   1.084       .  S
C877        C878   1.402       .  A
C878        N879   1.430       .  S
N879        O883   1.262       .  A
N879        O884   1.262       .  A
N882        O886   1.262       .  A
N882        O885   1.262       .  A
C887        C888   1.399       .  A
C887        C892   1.405       .  A
C887        H894   1.084       .  S
C888        C889   1.416       .  A
C889        C890   1.411       .  A
C889        N896   1.427       .  S
C890        C891   1.406       .  A
C890        H895   1.084       .  S
C891        C892   1.426       .  A
C892        N893   1.422       .  S
N893        O897   1.258       .  A
N893        O898   1.262       .  A
N896        O900   1.261       .  A
N896        O899   1.261       .  A
C901        C902   1.396       .  A
C901        C906   1.390       .  A
C901        H908   1.083       .  S
C902        C903   1.416       .  A
C903        C904   1.414       .  A
C903        N910   1.438       .  S
C904        C905   1.405       .  A
C904        H909   1.074       .  S
C905        C906   1.423       .  A
C906        N907   1.429       .  S
N907        O911   1.261       .  A
N907        O912   1.261       .  A
N910        O914   1.263       .  A
N910        O913   1.263       .  A
C915        C916   1.393       .  A
C915        C920   1.406       .  A
C915        H922   1.084       .  S
C916        C917   1.415       .  A
C917        C918   1.406       .  A
C917        N924   1.428       .  S
C918        C919   1.407       .  A
C918        H923   1.084       .  S
C919        C920   1.443       .  A
C920        N921   1.438       .  S
N921        O925   1.251       .  A
N921        O926   1.264       .  A
N924        O928   1.261       .  A
N924        O927   1.262       .  A
C929        C930   1.398       .  A
C929        C934   1.411       .  A
C929        H936   1.084       .  S
C930        C931   1.414       .  A
C931        C932   1.415       .  A
C931        N938   1.427       .  S
C932        C933   1.411       .  A
C932        H937   1.084       .  S
C933        C934   1.428       .  A
C934        N935   1.419       .  S
N935        O939   1.257       .  A
N935        O940   1.261       .  A
N938        O942   1.262       .  A
N938       O2065   1.262       .  A
O941       N2062   1.262       .  A
C943        C944   1.413       .  A
C943        C948   1.417       .  A
C943        H950   1.084       .  S
C944        C945   1.402       .  A
C945        C946   1.384       .  A
C945        N952   1.428       .  S
C946        C947   1.404       .  A
C946        H951   1.073       .  S
C947        C948   1.411       .  A
C948        N949   1.429       .  S
N949        O953   1.261       .  A
N949        O954   1.262       .  A
N952        O956   1.261       .  A
N952        O955   1.260       .  A
C957        C958   1.392       .  A
C957        C962   1.403       .  A
C957        H964   1.085       .  S
C958        C959   1.415       .  A
C959        C960   1.410       .  A
C959        N966   1.426       .  S
C960        C961   1.402       .  A
C960        H965   1.084       .  S
C961        C962   1.429       .  A
C962        N963   1.431       .  S
N963        O967   1.260       .  A
N963        O968   1.262       .  A
N966        O970   1.262       .  A
N966        O969   1.261       .  A
C971        C972   1.413       .  A
C971        C976   1.409       .  A
C971        H978   1.065       .  S
C972        C973   1.422       .  A
C973        C974   1.411       .  A
C973        N980   1.431       .  S
C974        C975   1.409       .  A
C974        H979   1.083       .  S
C975        C976   1.416       .  A
C976        N977   1.430       .  S
N977        O981   1.260       .  A
N977        O982   1.260       .  A
N980        O984   1.262       .  A
N980        O983   1.262       .  A
C985        C986   1.408       .  A
C985        C990   1.406       .  A
C985        H992   1.077       .  S
C986        C987   1.416       .  A
C987        C988   1.419       .  A
C987        N994   1.429       .  S
C988        C989   1.409       .  A
C988        H993   1.084       .  S
C989        C990   1.409       .  A
C990        N991   1.430       .  S
N991        O995   1.262       .  A
N991        O996   1.261       .  A
N994        O998   1.262       .  A
N994        O997   1.262       .  A
C999       C1000   1.407       .  A
C999       C1004   1.401       .  A
C999       H1006   1.083       .  S
C1000      C1001   1.413       .  A
C1001      C1002   1.399       .  A
C1001      N1008   1.429       .  S
C1002      C1003   1.409       .  A
C1002      H1007   1.069       .  S
C1003      C1004   1.415       .  A
C1004      N1005   1.432       .  S
N1005      O1009   1.262       .  A
N1005      O1010   1.262       .  A
N1008      O1012   1.262       .  A
N1008      O1011   1.261       .  A
C1013      C1014   1.390       .  A
C1013      C1018   1.384       .  A
C1013      H1020   1.086       .  S
C1014      C1015   1.408       .  A
C1015      C1016   1.396       .  A
C1015      N1022   1.430       .  S
C1016      C1017   1.407       .  A
C1016      H1021   1.082       .  S
C1017      C1018   1.411       .  A
C1018      N1019   1.422       .  S
N1019      O1023   1.261       .  A
N1019      O1024   1.262       .  A
N1022      O1026   1.261       .  A
N1022      O1025   1.262       .  A
C1027      C1028   1.400       .  A
C1027      C1032   1.401       .  A
C1027      H1034   1.084       .  S
C1028      C1029   1.417       .  A
C1029      C1030   1.403       .  A
C1029      N1036   1.424       .  S
C1030      C1031   1.401       .  A
C1030      H1035   1.082       .  S
C1031      C1032   1.412       .  A
C1032      N1033   1.426       .  S
N1033      O1037   1.261       .  A
N1033      O1038   1.262       .  A
N1036      O1040   1.259       .  A
N1036      O1039   1.261       .  A
C1041      C1042   1.393       .  A
C1041      C1046   1.393       .  A
C1041      H1048   1.085       .  S
C1042      C1043   1.402       .  A
C1043      C1044   1.388       .  A
C1043      N1050   1.431       .  S
C1044      C1045   1.407       .  A
C1044      H1049   1.083       .  S
C1045      C1046   1.420       .  A
C1046      N1047   1.426       .  S
N1047      O1051   1.262       .  A
N1047      O1052   1.261       .  A
N1050      O1054   1.261       .  A
N1050      O1053   1.262       .  A
C1055      C1056   1.392       .  A
C1055      C1060   1.389       .  A
C1055      H1062   1.085       .  S
C1056      C1057   1.407       .  A
C1057      C1058   1.395       .  A
C1057      N1064   1.425       .  S
C1058      C1059   1.405       .  A
C1058      H1063   1.079       .  S
C1059      C1060   1.424       .  A
C1060      N1061   1.426       .  S
N1061      O1065   1.261       .  A
N1061      O1066   1.262       .  A
N1064      O1068   1.261       .  A
N1064      O1067   1.262       .  A
C1069      C1070   1.402       .  A
C1069      C1074   1.399       .  A
C1069      H1076   1.084       .  S
C1070      C1071   1.407       .  A
C1071      C1072   1.388       .  A
C1071      N1078   1.431       .  S
C1072      C1073   1.409       .  A
C1072      H1077   1.082       .  S
C1073      C1074   1.421       .  A
C1074      N1075   1.428       .  S
N1075      O1079   1.260       .  A
N1075      O1080   1.262       .  A
N1078      O1082   1.261       .  A
N1078      O1081   1.261       .  A
C1083      C1084   1.391       .  A
C1083      C1088   1.381       .  A
C1083      H1090   1.086       .  S
C1084      C1085   1.403       .  A
C1085      C1086   1.393       .  A
C1085      N1092   1.424       .  S
C1086      C1087   1.402       .  A
C1086      H1091   1.076       .  S
C1087      C1088   1.410       .  A
C1088      N1089   1.427       .  S
N1089      O1093   1.262       .  A
N1089      O1094   1.261       .  A
N1092      O1096   1.259       .  A
N1092      O1095   1.263       .  A
C1097      C1098   1.409       .  A
C1097      C1102   1.393       .  A
C1097      H1104   1.080       .  S
C1098      C1099   1.422       .  A
C1099      C1100   1.389       .  A
C1099      N1106   1.424       .  S
C1100      C1101   1.393       .  A
C1100      H1105   1.086       .  S
C1101      C1102   1.401       .  A
C1102      N1103   1.428       .  S
N1103      O1107   1.262       .  A
N1103      O1108   1.262       .  A
N1106      O1110   1.261       .  A
N1106      O1109   1.261       .  A
C1111      C1112   1.409       .  A
C1111      C1116   1.384       .  A
C1111      H1118   1.078       .  S
C1112      C1113   1.408       .  A
C1113      C1114   1.372       .  A
C1113      N1120   1.422       .  S
C1114      C1115   1.384       .  A
C1114      H1119   1.077       .  S
C1115      C1116   1.394       .  A
C1116      N1117   1.431       .  S
N1117      O1121   1.260       .  A
N1117      O1122   1.262       .  A
N1120      O1124   1.262       .  A
N1120      O1123   1.262       .  A
O1125     Zr1137   2.404   1_554  S
O1125      C1127   1.278       .  A
O1126     Zr1163   2.346       .  S
O1126      C1127   1.272       .  A
C1127      C1677   1.421       .  S
O1128     Zr1702   2.433       .  S
O1128      C1130   1.285       .  A
O1129     Zr1164   2.394       .  S
O1129      C1130   1.280       .  A
C1130      C1632   1.472       .  S
O1131     Zr1140   2.415   1_554  S
O1131      C1133   1.282       .  A
O1132     Zr1163   2.395       .  S
O1132      C1133   1.279       .  A
C1133      C1646   1.442       .  S
O1134     Zr1699   2.421       .  S
O1134      C1136   1.282       .  A
O1135     Zr1164   2.402       .  S
O1135      C1136   1.283       .  A
C1136      C1663   1.462       .  S
Zr1137     O1696   2.421       .  S
Zr1137     O1138   2.435       .  S
Zr1137     O1701   2.435   1_556  S
Zr1137     O1143   2.370   1_556  S
Zr1137     O1706   2.367       .  S
Zr1137     O1729   2.365       .  S
Zr1137     O1169   2.374   1_556  S
O1138      H1181   0.991       .  S
O1139     Zr1699   2.435       .  S
O1139      H1742   0.990       .  S
O1139      H1746   0.990       .  S
Zr1140     O1690   2.420       .  S
Zr1140     O1141   2.436       .  S
Zr1140     O1704   2.435       .  S
Zr1140     O1706   2.364       .  S
Zr1140     O1143   2.356   1_556  S
Zr1140     O1168   2.383   1_556  S
Zr1140     O1732   2.375       .  S
O1141      H1744   0.990   1_556  S
O1141      H1185   0.990       .  S
O1142     Zr1702   2.435       .  S
O1142      H1737   0.990       .  S
O1143     Zr1163   2.367       .  S
O1144     Zr1699   2.372       .  S
O1144     Zr1702   2.360       .  S
O1144     Zr1164   2.368       .  S
O1144      H1171   0.963       .  S
O1145     Zr1157   2.432       .  S
O1145      C1147   1.287       .  A
O1146     Zr1164   2.360       .  S
O1146      C1147   1.273       .  A
C1147      C1576   1.440       .  S
O1148     Zr1722   2.427   1_554  S
O1148      C1150   1.287       .  A
O1149     Zr1163   2.399       .  S
O1149      C1150   1.280       .  A
C1150      C1618   1.472       .  S
O1151     Zr1160   2.433       .  S
O1151      C1153   1.285       .  A
O1152     Zr1164   2.394       .  S
O1152      C1153   1.280       .  A
C1153      C1604   1.452       .  S
O1154     Zr1719   2.459       .  S
O1154      C1156   1.293       .  A
O1155     Zr1163   2.405       .  S
O1155      C1156   1.280       .  A
C1156      C1590   1.484       .  S
Zr1157     O1716   2.453       .  S
Zr1157     O1720   2.438       .  S
Zr1157     O1159   2.433       .  S
Zr1157     O1165   2.364       .  S
Zr1157     O1731   2.372       .  S
Zr1157     O1167   2.377       .  S
Zr1157     O1728   2.260       .  S
O1158     Zr1719   2.435       .  S
O1158      H1740   0.990       .  S
O1158      H1745   0.990       .  S
O1159      H1179   0.990       .  S
Zr1160     O1710   2.431       .  S
Zr1160     O1161   2.434       .  S
Zr1160     O1724   2.436       .  S
Zr1160     O1165   2.368       .  S
Zr1160     O1170   2.369       .  S
Zr1160     O1730   2.359       .  S
Zr1160     O1728   2.269       .  S
O1161      H1739   0.990       .  S
O1162     Zr1722   2.436       .  S
O1162      H1738   0.990       .  S
O1162      H1748   0.990   1_556  S
Zr1163     O1168   2.377       .  S
Zr1163     O1169   2.383       .  S
Zr1163     O1166   2.245       .  S
Zr1164     O1165   2.384       .  S
Zr1164     O1167   2.379       .  S
Zr1164     O1170   2.373       .  S
O1165      H1173   0.959       .  S
O1166     Zr1719   2.259       .  S
O1166     Zr1722   2.263   1_554  S
O1167     Zr1699   2.364       .  S
O1168     Zr1722   2.368   1_554  S
O1168      H1172   0.965       .  S
O1169     Zr1719   2.372       .  S
O1169      H1174   0.952       .  S
O1170     Zr1702   2.374       .  S
H1175      O1704   0.990       .  S
H1176      O1724   0.990       .  S
H1177      O1723   0.990       .  S
H1178      O1720   0.990       .  S
H1180      O1701   0.990       .  S
H1182      O1703   0.990       .  S
H1183      O1720   0.990       .  S
H1184      O1701   0.990   1_556  S
H1186      O1724   0.990       .  S
O1187     Zr1199   2.460   1_554  S
O1187      C1189   1.293       .  A
O1188     Zr1225   2.415       .  S
O1188      C1189   1.286       .  A
C1189      C1562   1.490       .  S
O1190     Zr1764   2.464       .  S
O1190      C1192   1.293       .  A
O1191     Zr1226   2.441       .  S
O1191      C1192   1.290       .  A
C1192      C1537   1.508       .  S
O1193     Zr1202   2.456   1_554  S
O1193      C1195   1.290       .  A
O1194     Zr1225   2.459       .  S
O1194      C1195   1.294       .  A
C1195      C1520   1.487       .  S
O1196     Zr1761   2.462       .  S
O1196      C1198   1.290       .  A
O1197     Zr1226   2.462       .  S
O1197      C1198   1.294       .  A
C1198      C1551   1.496       .  S
Zr1199     O1758   2.468       .  S
Zr1199     O1200   2.434       .  S
Zr1199     O1763   2.437       .  S
Zr1199     O1205   2.387   1_556  S
Zr1199     O1768   2.378       .  S
Zr1199     O1791   2.368       .  S
Zr1199     O1231   2.366   1_556  S
O1200      H1243   0.990       .  S
O1201     Zr1761   2.437       .  S
O1201      H1804   0.990       .  S
O1201      H1808   0.990       .  S
Zr1202     O1752   2.468       .  S
Zr1202     O1203   2.436       .  S
Zr1202     O1766   2.433       .  S
Zr1202     O1768   2.377       .  S
Zr1202     O1205   2.382   1_556  S
Zr1202     O1230   2.380   1_556  S
Zr1202     O1794   2.361       .  S
O1203      H1806   0.990       .  S
O1203      H1247   0.990   1_556  S
O1204     Zr1764   2.434       .  S
O1204      H1799   0.990       .  S
O1205     Zr1225   2.408       .  S
O1206     Zr1761   2.375       .  S
O1206     Zr1764   2.374       .  S
O1206     Zr1226   2.397       .  S
O1206      H1233   0.969       .  S
O1207     Zr1219   2.441       .  S
O1207      C1209   1.288       .  A
O1208      C1209   1.290       .  A
C1209      C1506   1.478       .  S
O1210     Zr1784   2.436   1_554  S
O1210      C1212   1.285       .  A
O1211      C1212   1.297       .  A
C1212      C1478   1.497       .  S
O1213     Zr1222   2.401       .  S
O1213      C1215   1.279       .  A
O1214      C1215   1.298       .  A
C1215      C1467   1.496       .  S
O1216     Zr1781   2.494   1_554  S
O1216      C1218   1.297       .  A
O1217      C1218   1.295       .  A
C1218      C1492   1.512       .  S
Zr1219     O1778   2.496       .  S
Zr1219     O1782   2.434       .  S
Zr1219     O1783   2.433       .  S
Zr1219     O1227   2.387       .  S
Zr1219     O1790   2.373       .  S
O1220     Zr1781   2.434       .  S
O1220      H1802   0.989       .  S
O1220      H1807   0.990   1_556  S
O1221     Zr1781   2.433   1_554  S
O1221      H1803   0.990   1_554  S
Zr1222     O1772   2.437       .  S
Zr1222     O1223   2.435       .  S
Zr1222     O1786   2.431       .  S
Zr1222     O1790   2.373       .  S
Zr1222     O1227   2.385       .  S
O1223      H1801   0.990       .  S
O1224     Zr1784   2.432   1_554  S
O1224      H1800   0.990   1_554  S
O1224      H1810   0.988   1_554  S
Zr1225     O1230   2.378       .  S
Zr1225     O1231   2.396       .  S
Zr1226     O1229   2.391       .  S
Zr1226     O1232   2.385       .  S
O1227      H1235   0.958       .  S
O1228     Zr1781   2.376   1_554  S
O1228     Zr1784   2.375   1_554  S
O1229     Zr1761   2.368       .  S
O1230      H1234   0.966       .  S
O1231      H1236   0.955       .  S
O1232     Zr1764   2.366       .  S
H1237      O1766   0.990       .  S
H1238      O1786   0.990       .  S
H1239      O1785   0.990       .  S
H1240      O1782   0.989       .  S
H1241      O1783   0.990       .  S
H1242      O1763   0.990   1_554  S
H1244      O1765   0.990       .  S
H1245      O1782   0.990       .  S
H1246      O1763   0.990   1_554  S
H1248      O1786   0.988       .  S
O1249     Zr1261   2.466   1_554  S
O1249      C1251   1.291       .  A
O1250     Zr1287   2.435   1_655  S
O1250      C1251   1.290       .  A
C1251      C1450   1.496       .  S
O1252     Zr1826   2.458       .  S
O1252      C1254   1.292       .  A
O1253     Zr1288   2.438   1_655  S
O1253      C1254   1.288       .  A
C1254      C1425   1.486       .  S
O1255     Zr1264   2.460       .  S
O1255      C1257   1.291       .  A
O1256     Zr1287   2.455   1_655  S
O1256      C1257   1.292       .  A
C1257      C1411   1.493       .  S
O1258     Zr1823   2.443       .  S
O1258      C1260   1.288       .  A
O1259     Zr1288   2.443   1_655  S
O1259      C1260   1.289       .  A
C1260      C1439   1.477       .  S
Zr1261     O1820   2.437       .  S
Zr1261     O1262   2.435   1_556  S
Zr1261     O1825   2.435       .  S
Zr1261     O1267   2.378   1_556  S
Zr1261     O1830   2.386       .  S
Zr1261     O1853   2.377   1_655  S
Zr1261     O1293   2.365   1_656  S
O1262      H1305   0.990   1_554  S
O1263     Zr1823   2.434       .  S
O1263      H1866   0.990       .  S
O1263      H1870   0.990       .  S
Zr1264     O1814   2.458   1_554  S
Zr1264     O1265   2.435       .  S
Zr1264     O1828   2.432       .  S
Zr1264     O1830   2.371   1_554  S
Zr1264     O1267   2.383       .  S
Zr1264     O1292   2.364   1_655  S
Zr1264     O1856   2.371   1_654  S
O1265      H1868   0.990   1_554  S
O1265      H1309   0.990       .  S
O1266     Zr1826   2.434       .  S
O1266      H1861   0.990       .  S
O1267     Zr1287   2.392   1_655  S
O1268     Zr1823   2.381       .  S
O1268     Zr1826   2.374       .  S
O1268     Zr1288   2.399   1_655  S
O1268      H1295   0.969       .  S
O1269     Zr1281   2.480       .  S
O1269      C1271   1.296       .  A
O1270     Zr1288   2.445       .  S
O1270      C1271   1.290       .  A
C1271      C1369   1.504       .  S
O1272     Zr1846   2.453   1_554  S
O1272      C1274   1.293       .  A
O1273     Zr1287   2.443       .  S
O1273      C1274   1.288       .  A
C1274      C1394   1.490       .  S
O1275     Zr1284   2.469       .  S
O1275      C1277   1.292       .  A
O1276     Zr1288   2.443       .  S
O1276      C1277   1.291       .  A
C1277      C1383   1.501       .  S
O1278     Zr1843   2.477   1_554  S
O1278      C1280   1.294       .  A
O1279     Zr1287   2.460       .  S
O1279      C1280   1.293       .  A
C1280      C1355   1.496       .  S
Zr1281     O1840   2.476       .  S
Zr1281     O1282   2.436       .  S
Zr1281     O1845   2.434       .  S
Zr1281     O1289   2.383       .  S
Zr1281     O1852   2.388       .  S
Zr1281     O1855   2.372       .  S
Zr1281     O1291   2.372       .  S
O1282      H1302   0.990       .  S
O1282      H1307   0.990       .  S
O1283     Zr1843   2.435       .  S
O1283      H1865   0.990       .  S
Zr1284     O1834   2.452       .  S
Zr1284     O1285   2.435       .  S
Zr1284     O1848   2.436       .  S
Zr1284     O1852   2.388       .  S
Zr1284     O1289   2.379       .  S
Zr1284     O1294   2.365       .  S
Zr1284     O1854   2.367       .  S
O1285      H1863   0.990       .  S
O1286     Zr1846   2.439       .  S
O1286      H1862   0.990   1_556  S
O1286      H1872   0.990       .  S
Zr1287     O1290   2.403       .  S
Zr1287     O1292   2.396       .  S
Zr1287     O1293   2.392       .  S
Zr1288     O1289   2.390       .  S
Zr1288     O1291   2.388       .  S
Zr1288     O1294   2.381       .  S
O1289      H1297   0.978       .  S
O1290     Zr1843   2.386   1_554  S
O1290     Zr1846   2.387   1_554  S
O1291     Zr1823   2.378   1_455  S
O1292     Zr1846   2.367   1_554  S
O1292      H1296   0.969       .  S
O1293     Zr1843   2.374   1_554  S
O1293      H1298   0.965       .  S
O1294     Zr1826   2.371   1_455  S
H1299      O1828   0.990       .  S
H1300      O1848   0.990       .  S
H1301      O1847   0.990   1_554  S
H1303      O1845   0.990       .  S
H1304      O1825   0.990   1_554  S
H1306      O1827   0.990       .  S
H1308      O1825   0.990       .  S
H1310      O1848   0.990       .  S
C1311      H1312   1.085       .  S
C1311      C1317   1.538       .  S
C1311      C1316   1.552       .  S
C1311      C1315   1.535       .  S
C1313      H1314   1.111       .  S
C1313      C1319   1.550       .  S
C1313      C1318   1.541       .  S
C1313      C1320   1.556       .  S
C1315      C1318   1.373       .  D
C1315      C1674   1.455       .  S
C1316      C1319   1.397       .  D
C1316      C1397   1.542       .  S
C1317      C1320   1.382       .  D
C1317      C1495   1.534       .  S
C1318      C1660   1.497       .  S
C1319      C1380   1.517       .  S
C1320      C1509   1.499       .  S
C1321      H1322   1.107       .  S
C1321      C1327   1.556       .  S
C1321      C1326   1.548       .  S
C1321      C1325   1.523       .  S
C1323      H1324   1.097       .  S
C1323      C1329   1.566       .  S
C1323      C1328   1.550       .  S
C1323      C1330   1.525       .  S
C1325      C1328   1.379       .  D
C1325      C1649   1.467       .  S
C1326      C1329   1.380       .  D
C1326      C1481   1.523       .  S
C1327      C1330   1.377       .  D
C1327      C1408   1.499       .  S
C1328      C1635   1.501       .  S
C1329      C1464   1.514       .  S
C1330      C1422   1.511       .  S
C1331      H1332   1.107       .  S
C1331      C1337   1.546       .  S
C1331      C1336   1.561       .  S
C1331      C1335   1.541       .  S
C1333      H1334   1.107       .  S
C1333      C1339   1.546       .  S
C1333      C1338   1.535       .  S
C1333      C1340   1.553       .  S
C1335      C1338   1.376       .  D
C1335      C1593   1.497       .  S
C1336      C1339   1.391       .  D
C1336      C1565   1.510       .  S
C1337      C1340   1.377       .  D
C1337      C1352   1.510       .  S
C1338      C1579   1.481       .  S
C1339      C1548   1.516       .  S
C1340      C1366   1.507       .  S
C1341      H1342   1.101       .  S
C1341      C1347   1.538       .  S
C1341      C1346   1.546       .  S
C1341      C1345   1.547       .  S
C1343      H1344   1.101       .  S
C1343      C1349   1.554       .  S
C1343      C1348   1.532       .  S
C1343      C1350   1.558       .  S
C1345      C1348   1.385       .  D
C1345      C1607   1.488       .  S
C1346      C1349   1.387       .  D
C1346      C1534   1.540       .  S
C1347      C1350   1.383       .  D
C1347      C1436   1.508       .  S
C1348      C1621   1.498       .  S
C1349      C1523   1.504       .  S
C1350      C1453   1.509       .  S
C1351      C1352   1.405       .  A
C1351      C1356   1.415       .  A
C1351      H1358   1.084       .  S
C1352      C1353   1.416       .  A
C1353      C1354   1.405       .  A
C1353      N1360   1.422       .  S
C1354      C1355   1.397       .  A
C1354      H1359   1.084       .  S
C1355      C1356   1.417       .  A
C1356      N1357   1.426       .  S
N1357      O1361   1.261       .  A
N1357      O1362   1.262       .  A
N1360      O1364   1.262       .  A
N1360      O1363   1.262       .  A
C1365      C1366   1.408       .  A
C1365      C1370   1.412       .  A
C1365      H1372   1.081       .  S
C1366      C1367   1.411       .  A
C1367      C1368   1.410       .  A
C1367      N1374   1.433       .  S
C1368      C1369   1.407       .  A
C1368      H1373   1.083       .  S
C1369      C1370   1.417       .  A
C1370      N1371   1.428       .  S
N1371      O1375   1.262       .  A
N1371      O1376   1.262       .  A
N1374      O1378   1.262       .  A
N1374      O1377   1.263       .  A
C1379      C1380   1.410       .  A
C1379      C1384   1.414       .  A
C1379      H1386   1.084       .  S
C1380      C1381   1.422       .  A
C1381      C1382   1.403       .  A
C1381      N1388   1.423       .  S
C1382      C1383   1.397       .  A
C1382      H1387   1.083       .  S
C1383      C1384   1.415       .  A
C1384      N1385   1.429       .  S
N1385      O1389   1.262       .  A
N1385      O1390   1.261       .  A
N1388      O1392   1.260       .  A
N1388      O1391   1.261       .  A
C1393      C1394   1.383       .  A
C1393      C1398   1.389       .  A
C1393      H1400   1.086       .  S
C1394      C1395   1.412       .  A
C1395      C1396   1.421       .  A
C1395      N1402   1.428       .  S
C1396      C1397   1.421       .  A
C1396      H1401   1.080       .  S
C1397      C1398   1.441       .  A
C1398      N1399   1.426       .  S
N1399      O1403   1.263       .  A
N1399      O1404   1.261       .  A
N1402      O1406   1.262       .  A
N1402      O1405   1.261       .  A
C1407      C1408   1.399       .  A
C1407      C1412   1.402       .  A
C1407      H1414   1.084       .  S
C1408      C1409   1.421       .  A
C1409      C1410   1.410       .  A
C1409      N1416   1.431       .  S
C1410      C1411   1.404       .  A
C1410      H1415   1.084       .  S
C1411      C1412   1.414       .  A
C1412      N1413   1.428       .  S
N1413      O1417   1.262       .  A
N1413      O1418   1.261       .  A
N1416      O1420   1.259       .  A
N1416      O1419   1.262       .  A
C1421      C1422   1.408       .  A
C1421      C1426   1.410       .  A
C1421      H1428   1.083       .  S
C1422      C1423   1.425       .  A
C1423      C1424   1.397       .  A
C1423      N1430   1.428       .  S
C1424      C1425   1.395       .  A
C1424      H1429   1.085       .  S
C1425      C1426   1.413       .  A
C1426      N1427   1.427       .  S
N1427      O1431   1.261       .  A
N1427      O1432   1.261       .  A
N1430      O1434   1.260       .  A
N1430      O1433   1.263       .  A
C1435      C1436   1.410       .  A
C1435      C1440   1.390       .  A
C1435      H1442   1.077       .  S
C1436      C1437   1.417       .  A
C1437      C1438   1.415       .  A
C1437      N1444   1.428       .  S
C1438      C1439   1.408       .  A
C1438      H1443   1.084       .  S
C1439      C1440   1.402       .  A
C1440      N1441   1.430       .  S
N1441      O1445   1.262       .  A
N1441      O1446   1.262       .  A
N1444      O1448   1.262       .  A
N1444      O1447   1.262       .  A
C1449      C1450   1.399       .  A
C1449      C1454   1.401       .  A
C1449      H1456   1.084       .  S
C1450      C1451   1.414       .  A
C1451      C1452   1.409       .  A
C1451      N1458   1.427       .  S
C1452      C1453   1.406       .  A
C1452      H1457   1.084       .  S
C1453      C1454   1.423       .  A
C1454      N1455   1.422       .  S
N1455      O1459   1.258       .  A
N1455      O1460   1.262       .  A
N1458      O1462   1.261       .  A
N1458      O1461   1.262       .  A
C1463      C1464   1.394       .  A
C1463      C1468   1.388       .  A
C1463      H1470   1.083       .  S
C1464      C1465   1.415       .  A
C1465      C1466   1.414       .  A
C1465      N1472   1.437       .  S
C1466      C1467   1.407       .  A
C1466      H1471   1.077       .  S
C1467      C1468   1.423       .  A
C1468      N1469   1.427       .  S
N1469      O1473   1.261       .  A
N1469      O1474   1.261       .  A
N1472      O1476   1.263       .  A
N1472      O1475   1.263       .  A
C1477      C1478   1.392       .  A
C1477      C1482   1.405       .  A
C1477      H1484   1.084       .  S
C1478      C1479   1.417       .  A
C1479      C1480   1.407       .  A
C1479      N1486   1.428       .  S
C1480      C1481   1.406       .  A
C1480      H1485   1.084       .  S
C1481      C1482   1.442       .  A
C1482      N1483   1.437       .  S
N1483      O1487   1.250       .  A
N1483      O1488   1.264       .  A
N1486      O1490   1.261       .  A
N1486      O1489   1.261       .  A
C1491      C1492   1.399       .  A
C1491      C1496   1.413       .  A
C1491      H1498   1.084       .  S
C1492      C1493   1.416       .  A
C1493      C1494   1.415       .  A
C1493      N1500   1.427       .  S
C1494      C1495   1.411       .  A
C1494      H1499   1.084       .  S
C1495      C1496   1.428       .  A
C1496      N1497   1.420       .  S
N1497      O1501   1.258       .  A
N1497      O1502   1.261       .  A
N1500      O1504   1.262       .  A
C1505      C1506   1.414       .  A
C1505      C1510   1.418       .  A
C1505      H1512   1.083       .  S
C1506      C1507   1.401       .  A
C1507      C1508   1.384       .  A
C1507      N1514   1.428       .  S
C1508      C1509   1.403       .  A
C1508      H1513   1.071       .  S
C1509      C1510   1.411       .  A
C1510      N1511   1.429       .  S
N1511      O1515   1.261       .  A
N1511      O1516   1.263       .  A
N1514      O1518   1.262       .  A
N1514      O1517   1.260       .  A
C1519      C1520   1.394       .  A
C1519      C1524   1.406       .  A
C1519      H1526   1.084       .  S
C1520      C1521   1.413       .  A
C1521      C1522   1.409       .  A
C1521      N1528   1.427       .  S
C1522      C1523   1.403       .  A
C1522      H1527   1.084       .  S
C1523      C1524   1.430       .  A
C1524      N1525   1.433       .  S
N1525      O1529   1.260       .  A
N1525      O1530   1.262       .  A
N1528      O1532   1.262       .  A
N1528      O1531   1.261       .  A
C1533      C1534   1.412       .  A
C1533      C1538   1.408       .  A
C1533      H1540   1.068       .  S
C1534      C1535   1.423       .  A
C1535      C1536   1.407       .  A
C1535      N1542   1.432       .  S
C1536      C1537   1.407       .  A
C1536      H1541   1.083       .  S
C1537      C1538   1.416       .  A
C1538      N1539   1.430       .  S
N1539      O1543   1.261       .  A
N1539      O1544   1.261       .  A
N1542      O1546   1.263       .  A
N1542      O1545   1.262       .  A
C1547      C1548   1.408       .  A
C1547      C1552   1.403       .  A
C1547      H1554   1.074       .  S
C1548      C1549   1.413       .  A
C1549      C1550   1.418       .  A
C1549      N1556   1.427       .  S
C1550      C1551   1.411       .  A
C1550      H1555   1.083       .  S
C1551      C1552   1.407       .  A
C1552      N1553   1.430       .  S
N1553      O1557   1.262       .  A
N1553      O1558   1.261       .  A
N1556      O1560   1.262       .  A
N1556      O1559   1.261       .  A
C1561      C1562   1.406       .  A
C1561      C1566   1.400       .  A
C1561      H1568   1.083       .  S
C1562      C1563   1.414       .  A
C1563      C1564   1.398       .  A
C1563      N1570   1.430       .  S
C1564      C1565   1.409       .  A
C1564      H1569   1.068       .  S
C1565      C1566   1.415       .  A
C1566      N1567   1.432       .  S
N1567      O1571   1.262       .  A
N1567      O1572   1.262       .  A
N1570      O1574   1.262       .  A
N1570      O1573   1.262       .  A
C1575      C1576   1.389       .  A
C1575      C1580   1.382       .  A
C1575      H1582   1.086       .  S
C1576      C1577   1.404       .  A
C1577      C1578   1.390       .  A
C1577      N1584   1.430       .  S
C1578      C1579   1.407       .  A
C1578      H1583   1.081       .  S
C1579      C1580   1.412       .  A
C1580      N1581   1.424       .  S
N1581      O1585   1.261       .  A
N1581      O1586   1.262       .  A
N1584      O1588   1.261       .  A
N1584      O1587   1.262       .  A
C1589      C1590   1.399       .  A
C1589      C1594   1.399       .  A
C1589      H1596   1.084       .  S
C1590      C1591   1.418       .  A
C1591      C1592   1.400       .  A
C1591      N1598   1.426       .  S
C1592      C1593   1.398       .  A
C1592      H1597   1.083       .  S
C1593      C1594   1.410       .  A
C1594      N1595   1.428       .  S
N1595      O1599   1.261       .  A
N1595      O1600   1.261       .  A
N1598      O1602   1.259       .  A
N1598      O1601   1.261       .  A
C1603      C1604   1.393       .  A
C1603      C1608   1.395       .  A
C1603      H1610   1.085       .  S
C1604      C1605   1.402       .  A
C1605      C1606   1.389       .  A
C1605      N1612   1.431       .  S
C1606      C1607   1.407       .  A
C1606      H1611   1.083       .  S
C1607      C1608   1.419       .  A
C1608      N1609   1.426       .  S
N1609      O1613   1.262       .  A
N1609      O1614   1.261       .  A
N1612      O1616   1.261       .  A
N1612      O1615   1.262       .  A
C1617      C1618   1.393       .  A
C1617      C1622   1.392       .  A
C1617      H1624   1.085       .  S
C1618      C1619   1.406       .  A
C1619      C1620   1.393       .  A
C1619      N1626   1.422       .  S
C1620      C1621   1.402       .  A
C1620      H1625   1.078       .  S
C1621      C1622   1.426       .  A
C1622      N1623   1.426       .  S
N1623      O1627   1.261       .  A
N1623      O1628   1.263       .  A
N1626      O1630   1.260       .  A
N1626      O1629   1.261       .  A
C1631      C1632   1.403       .  A
C1631      C1636   1.399       .  A
C1631      H1638   1.084       .  S
C1632      C1633   1.405       .  A
C1633      C1634   1.387       .  A
C1633      N1640   1.432       .  S
C1634      C1635   1.410       .  A
C1634      H1639   1.081       .  S
C1635      C1636   1.420       .  A
C1636      N1637   1.429       .  S
N1637      O1641   1.260       .  A
N1637      O1642   1.262       .  A
N1640      O1644   1.261       .  A
N1640      O1643   1.261       .  A
C1645      C1646   1.390       .  A
C1645      C1650   1.381       .  A
C1645      H1652   1.086       .  S
C1646      C1647   1.404       .  A
C1647      C1648   1.393       .  A
C1647      N1654   1.426       .  S
C1648      C1649   1.403       .  A
C1648      H1653   1.077       .  S
C1649      C1650   1.413       .  A
C1650      N1651   1.429       .  S
N1651      O1655   1.262       .  A
N1651      O1656   1.262       .  A
N1654      O1658   1.260       .  A
N1654      O1657   1.263       .  A
C1659      C1660   1.410       .  A
C1659      C1664   1.394       .  A
C1659      H1666   1.081       .  S
C1660      C1661   1.422       .  A
C1661      C1662   1.390       .  A
C1661      N1668   1.424       .  S
C1662      C1663   1.393       .  A
C1662      H1667   1.085       .  S
C1663      C1664   1.403       .  A
C1664      N1665   1.429       .  S
N1665      O1669   1.262       .  A
N1665      O1670   1.262       .  A
N1668      O1672   1.261       .  A
N1668      O1671   1.261       .  A
C1673      C1674   1.409       .  A
C1673      C1678   1.382       .  A
C1673      H1680   1.077       .  S
C1674      C1675   1.410       .  A
C1675      C1676   1.377       .  A
C1675      N1682   1.423       .  S
C1676      C1677   1.385       .  A
C1676      H1681   1.078       .  S
C1677      C1678   1.393       .  A
C1678      N1679   1.431       .  S
N1679      O1683   1.260       .  A
N1679      O1684   1.262       .  A
N1682      O1686   1.262       .  A
N1682      O1685   1.262       .  A
O1687     Zr1699   2.414       .  S
O1687      C1689   1.280       .  A
O1688     Zr1725   2.337       .  S
O1688      C1689   1.271       .  A
C1689      C2239   1.424       .  S
O1690      C1692   1.283       .  A
O1691     Zr1726   2.404       .  S
O1691      C1692   1.282       .  A
C1692      C2194   1.470       .  S
O1693     Zr1702   2.413       .  S
O1693      C1695   1.282       .  A
O1694     Zr1725   2.395       .  S
O1694      C1695   1.280       .  A
C1695      C2208   1.438       .  S
O1696      C1698   1.282       .  A
O1697     Zr1726   2.400       .  S
O1697      C1698   1.283       .  A
C1698      C2225   1.461       .  S
Zr1699     O1700   2.435       .  S
Zr1699     O1705   2.365       .  S
Zr1699     O1731   2.373       .  S
O1700      H1743   0.991       .  S
Zr1702     O1703   2.437       .  S
Zr1702     O1705   2.357       .  S
Zr1702     O1730   2.391       .  S
O1703      H1747   0.990       .  S
O1705     Zr1725   2.369       .  S
O1706     Zr1726   2.367       .  S
O1706      H1733   0.963       .  S
O1707     Zr1719   2.444   1_556  S
O1707      C1709   1.290       .  A
O1708     Zr1726   2.374       .  S
O1708      C1709   1.276       .  A
C1709      C2138   1.450       .  S
O1710      C1712   1.287       .  A
O1711     Zr1725   2.381       .  S
O1711      C1712   1.276       .  A
C1712      C2180   1.464       .  S
O1713     Zr1722   2.428       .  S
O1713      C1715   1.284       .  A
O1714     Zr1726   2.388       .  S
O1714      C1715   1.279       .  A
C1715      C2166   1.448       .  S
O1716      C1718   1.291       .  A
O1717     Zr1725   2.433       .  S
O1717      C1718   1.286       .  A
C1718      C2152   1.494       .  S
Zr1719     O1721   2.434       .  S
Zr1719     O1727   2.363   1_554  S
Zr1719     O1729   2.376   1_554  S
O1721      H1741   0.990   1_554  S
Zr1722     O1723   2.433       .  S
Zr1722     O1727   2.367       .  S
Zr1722     O1732   2.370       .  S
Zr1725     O1730   2.385       .  S
Zr1725     O1731   2.376       .  S
Zr1725     O1728   2.247       .  S
Zr1726     O1727   2.384       .  S
Zr1726     O1729   2.379       .  S
Zr1726     O1732   2.375       .  S
O1727      H1735   0.961       .  S
O1730      H1734   0.965       .  S
O1731      H1736   0.952       .  S
O1749     Zr1761   2.451       .  S
O1749      C1751   1.291       .  A
O1750     Zr1787   2.435       .  S
O1750      C1751   1.289       .  A
C1751      C2124   1.492       .  S
O1752      C1754   1.294       .  A
O1753     Zr1788   2.441       .  S
O1753      C1754   1.289       .  A
C1754      C2099   1.508       .  S
O1755     Zr1764   2.455       .  S
O1755      C1757   1.289       .  A
O1756     Zr1787   2.458       .  S
O1756      C1757   1.294       .  A
C1757      C2082   1.484       .  S
O1758      C1760   1.292       .  A
O1759     Zr1788   2.474       .  S
O1759      C1760   1.296       .  A
C1760      C2113   1.506       .  S
Zr1761     O1762   2.434       .  S
Zr1761     O1767   2.385       .  S
Zr1761     O1793   2.369       .  S
O1762      H1805   0.990       .  S
Zr1764     O1765   2.435       .  S
Zr1764     O1767   2.383       .  S
Zr1764     O1792   2.374       .  S
O1765      H1809   0.990       .  S
O1767     Zr1787   2.408       .  S
O1768     Zr1788   2.396       .  S
O1768      H1795   0.969       .  S
O1769     Zr1781   2.445       .  S
O1769      C1771   1.289       .  A
O1770      C1771   1.291       .  A
C1771      C2068   1.480       .  S
O1772      C1774   1.285       .  A
O1773      C1774   1.296       .  A
C1774      C2040   1.496       .  S
O1775     Zr1784   2.401       .  S
O1775      C1777   1.279       .  A
O1776      C1777   1.297       .  A
C1777      C2029   1.495       .  S
O1778      C1780   1.297       .  A
O1779      C1780   1.295       .  A
C1780      C2054   1.515       .  S
Zr1781     O1789   2.386       .  S
Zr1784     O1785   2.434       .  S
Zr1784     O1789   2.387       .  S
Zr1787     O1792   2.379       .  S
Zr1787     O1793   2.396       .  S
Zr1788     O1791   2.392       .  S
Zr1788     O1794   2.382       .  S
O1789      H1797   0.960       .  S
O1792      H1796   0.964       .  S
O1793      H1798   0.956       .  S
O1811     Zr1823   2.463       .  S
O1811      C1813   1.291       .  A
O1812     Zr1849   2.434   1_655  S
O1812      C1813   1.290       .  A
C1813      C2012   1.494       .  S
O1814      C1816   1.292       .  A
O1815     Zr1850   2.446   1_655  S
O1815      C1816   1.289       .  A
C1816      C1987   1.491       .  S
O1817     Zr1826   2.466       .  S
O1817      C1819   1.293       .  A
O1818     Zr1849   2.445   1_655  S
O1818      C1819   1.291       .  A
C1819      C1973   1.492       .  S
O1820      C1822   1.287       .  A
O1821     Zr1850   2.438   1_655  S
O1821      C1822   1.288       .  A
C1822      C2001   1.471       .  S
Zr1823     O1824   2.435       .  S
Zr1823     O1829   2.377       .  S
Zr1823     O1855   2.366   1_655  S
O1824      H1867   0.989       .  S
Zr1826     O1827   2.435       .  S
Zr1826     O1829   2.383       .  S
Zr1826     O1854   2.362   1_655  S
O1827      H1871   0.990       .  S
O1829     Zr1849   2.393   1_655  S
O1830     Zr1850   2.397   1_655  S
O1830      H1857   0.969       .  S
O1831     Zr1843   2.479       .  S
O1831      C1833   1.296       .  A
O1832     Zr1850   2.434       .  S
O1832      C1833   1.288       .  A
C1833      C1931   1.498       .  S
O1834      C1836   1.292       .  A
O1835     Zr1849   2.442       .  S
O1835      C1836   1.288       .  A
C1836      C1956   1.487       .  S
O1837     Zr1846   2.472       .  S
O1837      C1839   1.293       .  A
O1838     Zr1850   2.442       .  S
O1838      C1839   1.290       .  A
C1839      C1945   1.502       .  S
O1840      C1842   1.294       .  A
O1841     Zr1849   2.467       .  S
O1841      C1842   1.294       .  A
C1842      C1917   1.500       .  S
Zr1843     O1844   2.435       .  S
Zr1843     O1851   2.380       .  S
Zr1843     O1853   2.371       .  S
O1844      H1864   0.990       .  S
O1844      H1869   0.990   1_556  S
Zr1846     O1847   2.436       .  S
Zr1846     O1851   2.378       .  S
Zr1846     O1856   2.365       .  S
Zr1849     O1852   2.401       .  S
Zr1849     O1854   2.398       .  S
Zr1849     O1855   2.389       .  S
Zr1850     O1851   2.391       .  S
Zr1850     O1853   2.391       .  S
Zr1850     O1856   2.378       .  S
O1851      H1859   0.980       .  S
O1854      H1858   0.969       .  S
O1855      H1860   0.965       .  S
C1873      H1874   1.089       .  S
C1873      C1879   1.538       .  S
C1873      C1878   1.550       .  S
C1873      C1877   1.538       .  S
C1875      H1876   1.111       .  S
C1875      C1881   1.548       .  S
C1875      C1880   1.536       .  S
C1875      C1882   1.556       .  S
C1877      C1880   1.373       .  D
C1877      C2236   1.455       .  S
C1878      C1881   1.394       .  D
C1878      C1959   1.534       .  S
C1879      C1882   1.385       .  D
C1879      C2057   1.536       .  S
C1880      C2222   1.493       .  S
C1881      C1942   1.518       .  S
C1882      C2071   1.499       .  S
C1883      H1884   1.108       .  S
C1883      C1889   1.555       .  S
C1883      C1888   1.546       .  S
C1883      C1887   1.519       .  S
C1885      H1886   1.097       .  S
C1885      C1891   1.568       .  S
C1885      C1890   1.553       .  S
C1885      C1892   1.528       .  S
C1887      C1890   1.375       .  D
C1887      C2211   1.465       .  S
C1888      C1891   1.380       .  D
C1888      C2043   1.523       .  S
C1889      C1892   1.379       .  D
C1889      C1970   1.495       .  S
C1890      C2197   1.499       .  S
C1891      C2026   1.512       .  S
C1892      C1984   1.517       .  S
C1893      H1894   1.105       .  S
C1893      C1899   1.548       .  S
C1893      C1898   1.567       .  S
C1893      C1897   1.546       .  S
C1895      H1896   1.108       .  S
C1895      C1901   1.545       .  S
C1895      C1900   1.538       .  S
C1895      C1902   1.555       .  S
C1897      C1900   1.380       .  D
C1897      C2155   1.508       .  S
C1898      C1901   1.394       .  D
C1898      C2127   1.514       .  S
C1899      C1902   1.376       .  D
C1899      C1914   1.515       .  S
C1900      C2141   1.484       .  S
C1901      C2110   1.520       .  S
C1902      C1928   1.505       .  S
C1903      H1904   1.102       .  S
C1903      C1909   1.536       .  S
C1903      C1908   1.544       .  S
C1903      C1907   1.546       .  S
C1905      H1906   1.102       .  S
C1905      C1911   1.555       .  S
C1905      C1910   1.532       .  S
C1905      C1912   1.559       .  S
C1907      C1910   1.382       .  D
C1907      C2169   1.486       .  S
C1908      C1911   1.387       .  D
C1908      C2096   1.538       .  S
C1909      C1912   1.381       .  D
C1909      C1998   1.504       .  S
C1910      C2183   1.494       .  S
C1911      C2085   1.504       .  S
C1912      C2015   1.508       .  S
C1913      C1914   1.406       .  A
C1913      C1918   1.418       .  A
C1913      H1920   1.083       .  S
C1914      C1915   1.415       .  A
C1915      C1916   1.406       .  A
C1915      N1922   1.420       .  S
C1916      C1917   1.396       .  A
C1916      H1921   1.084       .  S
C1917      C1918   1.417       .  A
C1918      N1919   1.425       .  S
N1919      O1923   1.261       .  A
N1919      O1924   1.261       .  A
N1922      O1926   1.262       .  A
N1922      O1925   1.261       .  A
C1927      C1928   1.408       .  A
C1927      C1932   1.409       .  A
C1927      H1934   1.079       .  S
C1928      C1929   1.413       .  A
C1929      C1930   1.410       .  A
C1929      N1936   1.435       .  S
C1930      C1931   1.405       .  A
C1930      H1935   1.083       .  S
C1931      C1932   1.415       .  A
C1932      N1933   1.429       .  S
N1933      O1937   1.262       .  A
N1933      O1938   1.262       .  A
N1936      O1940   1.262       .  A
N1936      O1939   1.263       .  A
C1941      C1942   1.410       .  A
C1941      C1946   1.411       .  A
C1941      H1948   1.084       .  S
C1942      C1943   1.424       .  A
C1943      C1944   1.407       .  A
C1943      N1950   1.424       .  S
C1944      C1945   1.399       .  A
C1944      H1949   1.083       .  S
C1945      C1946   1.413       .  A
C1946      N1947   1.428       .  S
N1947      O1951   1.261       .  A
N1947      O1952   1.262       .  A
N1950      O1954   1.260       .  A
N1950      O1953   1.261       .  A
C1955      C1956   1.383       .  A
C1955      C1960   1.387       .  A
C1955      H1962   1.086       .  S
C1956      C1957   1.413       .  A
C1957      C1958   1.420       .  A
C1957      N1964   1.429       .  S
C1958      C1959   1.419       .  A
C1958      H1963   1.081       .  S
C1959      C1960   1.439       .  A
C1960      N1961   1.427       .  S
N1961      O1965   1.263       .  A
N1961      O1966   1.261       .  A
N1964      O1968   1.262       .  A
N1964      O1967   1.261       .  A
C1969      C1970   1.400       .  A
C1969      C1974   1.401       .  A
C1969      H1976   1.084       .  S
C1970      C1971   1.419       .  A
C1971      C1972   1.408       .  A
C1971      N1978   1.431       .  S
C1972      C1973   1.405       .  A
C1972      H1977   1.084       .  S
C1973      C1974   1.414       .  A
C1974      N1975   1.428       .  S
N1975      O1979   1.262       .  A
N1975      O1980   1.262       .  A
N1978      O1982   1.259       .  A
N1978      O1981   1.262       .  A
C1983      C1984   1.410       .  A
C1983      C1988   1.413       .  A
C1983      H1990   1.083       .  S
C1984      C1985   1.427       .  A
C1985      C1986   1.398       .  A
C1985      N1992   1.428       .  S
C1986      C1987   1.395       .  A
C1986      H1991   1.085       .  S
C1987      C1988   1.414       .  A
C1988      N1989   1.427       .  S
N1989      O1993   1.261       .  A
N1989      O1994   1.261       .  A
N1992      O1996   1.260       .  A
N1992      O1995   1.263       .  A
C1997      C1998   1.410       .  A
C1997      C2002   1.388       .  A
C1997      H2004   1.078       .  S
C1998      C1999   1.417       .  A
C1999      C2000   1.413       .  A
C1999      N2006   1.428       .  S
C2000      C2001   1.406       .  A
C2000      H2005   1.084       .  S
C2001      C2002   1.400       .  A
C2002      N2003   1.430       .  S
N2003      O2007   1.262       .  A
N2003      O2008   1.262       .  A
N2006      O2010   1.262       .  A
N2006      O2009   1.262       .  A
C2011      C2012   1.399       .  A
C2011      C2016   1.401       .  A
C2011      H2018   1.084       .  S
C2012      C2013   1.414       .  A
C2013      C2014   1.407       .  A
C2013      N2020   1.427       .  S
C2014      C2015   1.404       .  A
C2014      H2019   1.084       .  S
C2015      C2016   1.424       .  A
C2016      N2017   1.423       .  S
N2017      O2021   1.258       .  A
N2017      O2022   1.262       .  A
N2020      O2024   1.261       .  A
N2020      O2023   1.261       .  A
C2025      C2026   1.394       .  A
C2025      C2030   1.388       .  A
C2025      H2032   1.083       .  S
C2026      C2027   1.415       .  A
C2027      C2028   1.414       .  A
C2027      N2034   1.438       .  S
C2028      C2029   1.407       .  A
C2028      H2033   1.076       .  S
C2029      C2030   1.423       .  A
C2030      N2031   1.427       .  S
N2031      O2035   1.261       .  A
N2031      O2036   1.261       .  A
N2034      O2038   1.263       .  A
N2034      O2037   1.263       .  A
C2039      C2040   1.393       .  A
C2039      C2044   1.407       .  A
C2039      H2046   1.084       .  S
C2040      C2041   1.415       .  A
C2041      C2042   1.405       .  A
C2041      N2048   1.428       .  S
C2042      C2043   1.406       .  A
C2042      H2047   1.084       .  S
C2043      C2044   1.443       .  A
C2044      N2045   1.438       .  S
N2045      O2049   1.251       .  A
N2045      O2050   1.264       .  A
N2048      O2052   1.261       .  A
N2048      O2051   1.261       .  A
C2053      C2054   1.400       .  A
C2053      C2058   1.414       .  A
C2053      H2060   1.084       .  S
C2054      C2055   1.416       .  A
C2055      C2056   1.417       .  A
C2055      N2062   1.427       .  S
C2056      C2057   1.412       .  A
C2056      H2061   1.084       .  S
C2057      C2058   1.428       .  A
C2058      N2059   1.420       .  S
N2059      O2063   1.258       .  A
N2059      O2064   1.261       .  A
N2062      O2066   1.262       .  A
C2067      C2068   1.414       .  A
C2067      C2072   1.419       .  A
C2067      H2074   1.083       .  S
C2068      C2069   1.402       .  A
C2069      C2070   1.384       .  A
C2069      N2076   1.428       .  S
C2070      C2071   1.404       .  A
C2070      H2075   1.072       .  S
C2071      C2072   1.411       .  A
C2072      N2073   1.430       .  S
N2073      O2077   1.261       .  A
N2073      O2078   1.263       .  A
N2076      O2080   1.262       .  A
N2076      O2079   1.260       .  A
C2081      C2082   1.390       .  A
C2081      C2086   1.403       .  A
C2081      H2088   1.084       .  S
C2082      C2083   1.413       .  A
C2083      C2084   1.410       .  A
C2083      N2090   1.426       .  S
C2084      C2085   1.403       .  A
C2084      H2089   1.084       .  S
C2085      C2086   1.430       .  A
C2086      N2087   1.432       .  S
N2087      O2091   1.260       .  A
N2087      O2092   1.262       .  A
N2090      O2094   1.262       .  A
N2090      O2093   1.261       .  A
C2095      C2096   1.411       .  A
C2095      C2100   1.406       .  A
C2095      H2102   1.066       .  S
C2096      C2097   1.423       .  A
C2097      C2098   1.407       .  A
C2097      N2104   1.432       .  S
C2098      C2099   1.407       .  A
C2098      H2103   1.083       .  S
C2099      C2100   1.416       .  A
C2100      N2101   1.429       .  S
N2101      O2105   1.260       .  A
N2101      O2106   1.259       .  A
N2104      O2108   1.263       .  A
N2104      O2107   1.262       .  A
C2109      C2110   1.406       .  A
C2109      C2114   1.407       .  A
C2109      H2116   1.078       .  S
C2110      C2111   1.416       .  A
C2111      C2112   1.420       .  A
C2111      N2118   1.429       .  S
C2112      C2113   1.411       .  A
C2112      H2117   1.084       .  S
C2113      C2114   1.411       .  A
C2114      N2115   1.429       .  S
N2115      O2119   1.262       .  A
N2115      O2120   1.261       .  A
N2118      O2122   1.262       .  A
N2118      O2121   1.262       .  A
C2123      C2124   1.407       .  A
C2123      C2128   1.399       .  A
C2123      H2130   1.083       .  S
C2124      C2125   1.412       .  A
C2125      C2126   1.400       .  A
C2125      N2132   1.429       .  S
C2126      C2127   1.410       .  A
C2126      H2131   1.069       .  S
C2127      C2128   1.415       .  A
C2128      N2129   1.432       .  S
N2129      O2133   1.262       .  A
N2129      O2134   1.263       .  A
N2132      O2136   1.262       .  A
N2132      O2135   1.261       .  A
C2137      C2138   1.389       .  A
C2137      C2142   1.384       .  A
C2137      H2144   1.086       .  S
C2138      C2139   1.408       .  A
C2139      C2140   1.395       .  A
C2139      N2146   1.430       .  S
C2140      C2141   1.406       .  A
C2140      H2145   1.081       .  S
C2141      C2142   1.413       .  A
C2142      N2143   1.423       .  S
N2143      O2147   1.261       .  A
N2143      O2148   1.262       .  A
N2146      O2150   1.261       .  A
N2146      O2149   1.262       .  A
C2151      C2152   1.400       .  A
C2151      C2156   1.403       .  A
C2151      H2158   1.084       .  S
C2152      C2153   1.415       .  A
C2153      C2154   1.404       .  A
C2153      N2160   1.421       .  S
C2154      C2155   1.401       .  A
C2154      H2159   1.082       .  S
C2155      C2156   1.414       .  A
C2156      N2157   1.428       .  S
N2157      O2161   1.261       .  A
N2157      O2162   1.262       .  A
N2160      O2164   1.260       .  A
N2160      O2163   1.262       .  A
C2165      C2166   1.393       .  A
C2165      C2170   1.394       .  A
C2165      H2172   1.085       .  S
C2166      C2167   1.401       .  A
C2167      C2168   1.387       .  A
C2167      N2174   1.431       .  S
C2168      C2169   1.406       .  A
C2168      H2173   1.083       .  S
C2169      C2170   1.420       .  A
C2170      N2171   1.426       .  S
N2171      O2175   1.263       .  A
N2171      O2176   1.261       .  A
N2174      O2178   1.261       .  A
N2174      O2177   1.262       .  A
C2179      C2180   1.391       .  A
C2179      C2184   1.389       .  A
C2179      H2186   1.085       .  S
C2180      C2181   1.406       .  A
C2181      C2182   1.393       .  A
C2181      N2188   1.426       .  S
C2182      C2183   1.405       .  A
C2182      H2187   1.079       .  S
C2183      C2184   1.424       .  A
C2184      N2185   1.426       .  S
N2185      O2189   1.261       .  A
N2185      O2190   1.262       .  A
N2188      O2192   1.260       .  A
N2188      O2191   1.262       .  A
C2193      C2194   1.401       .  A
C2193      C2198   1.398       .  A
C2193      H2200   1.084       .  S
C2194      C2195   1.405       .  A
C2195      C2196   1.386       .  A
C2195      N2202   1.431       .  S
C2196      C2197   1.408       .  A
C2196      H2201   1.082       .  S
C2197      C2198   1.421       .  A
C2198      N2199   1.428       .  S
N2199      O2203   1.260       .  A
N2199      O2204   1.262       .  A
N2202      O2206   1.261       .  A
N2202      O2205   1.261       .  A
C2207      C2208   1.390       .  A
C2207      C2212   1.381       .  A
C2207      H2214   1.086       .  S
C2208      C2209   1.401       .  A
C2209      C2210   1.391       .  A
C2209      N2216   1.425       .  S
C2210      C2211   1.402       .  A
C2210      H2215   1.076       .  S
C2211      C2212   1.412       .  A
C2212      N2213   1.427       .  S
N2213      O2217   1.262       .  A
N2213      O2218   1.262       .  A
N2216      O2220   1.260       .  A
N2216      O2219   1.262       .  A
C2221      C2222   1.409       .  A
C2221      C2226   1.394       .  A
C2221      H2228   1.080       .  S
C2222      C2223   1.419       .  A
C2223      C2224   1.390       .  A
C2223      N2230   1.423       .  S
C2224      C2225   1.394       .  A
C2224      H2229   1.085       .  S
C2225      C2226   1.403       .  A
C2226      N2227   1.429       .  S
N2227      O2231   1.262       .  A
N2227      O2232   1.262       .  A
N2230      O2234   1.261       .  A
N2230      O2233   1.261       .  A
C2235      C2236   1.410       .  A
C2235      C2240   1.382       .  A
C2235      H2242   1.077       .  S
C2236      C2237   1.409       .  A
C2237      C2238   1.374       .  A
C2237      N2244   1.426       .  S
C2238      C2239   1.386       .  A
C2238      H2243   1.072       .  S
C2239      C2240   1.393       .  A
C2240      N2241   1.430       .  S
N2241      O2245   1.261       .  A
N2241      O2246   1.262       .  A
N2244      O2248   1.262       .  A
N2244      O2247   1.262       .  A
