geometry optimzed in LAMMPS
_audit_creation_date              2020-11-30 
_audit_creation_method            'lammps2cif' 
_symmetry_space_group_name_H-M    'P1' 
_symmetry_Int_Tables_number       1 
_symmetry_cell_setting            triclinic 
loop_ 
_symmetry_equiv_pos_as_xyz 
  x,y,z 
_cell_length_a                    34.63244511 
_cell_length_b                    35.56128988422328 
_cell_length_c                    34.53685113566081 
_cell_angle_alpha                 88.69248440798951 
_cell_angle_beta                  90.68509952386285 
_cell_angle_gamma                 92.60641750610176 
loop_ 
_atom_site_label 
_atom_site_type_symbol 
_atom_site_fract_x 
_atom_site_fract_y 
_atom_site_fract_z 
_atom_site_charge 
C1          C  0.58273690  0.91925961  0.75442438     0.02800
C2          C  0.60437530  0.88936522  0.74215931    -0.13300
C3          C  0.58666771  0.85973134  0.72090512     0.00300
C4          C  0.54694550  0.86075201  0.71175630    -0.11800
C5          C  0.52469370  0.88967599  0.72555344     0.02800
C6          C  0.54281137  0.91848836  0.74709674    -0.11300
H7          H  0.63498252  0.88931318  0.74904811     0.08400
H8          H  0.53285414  0.83789632  0.69594085     0.06000
H9          H  0.52592272  0.94099257  0.75762752     0.05800
C10         C  0.59447410  0.14700119  0.89716852     0.02800
C11         C  0.61582020  0.18022886  0.90836176    -0.13300
C12         C  0.59663639  0.21389919  0.91315376     0.00300
C13         C  0.55624190  0.21308760  0.90656097    -0.11800
C14         C  0.53493034  0.18113865  0.89300568     0.02800
C15         C  0.55428679  0.14797073  0.88937047    -0.11300
H16         H  0.64696717  0.18014790  0.91148236     0.08400
H17         H  0.54148343  0.23890166  0.91001990     0.06000
H18         H  0.53854819  0.12327397  0.87853861     0.05800
C19         C  0.87962214  0.76458500  0.64729768     0.02800
C20         C  0.87481772  0.76359798  0.60698823    -0.13300
C21         C  0.84733241  0.73879702  0.59037753     0.00300
C22         C  0.82498454  0.71427884  0.61504162    -0.11800
C23         C  0.82751633  0.71706509  0.65580958     0.02800
C24         C  0.85541026  0.74226962  0.67157610    -0.11300
H25         H  0.89385167  0.78092925  0.58852019     0.08400
H26         H  0.80388346  0.69477275  0.60240183     0.06000
H27         H  0.85714397  0.74580915  0.70265701     0.05800
C28         C  0.11303686  0.89958487  0.62999781     0.02800
C29         C  0.14783970  0.91009653  0.64875850    -0.13300
C30         C  0.18307944  0.90239651  0.63201192     0.00300
C31         C  0.18347819  0.88644546  0.59452003    -0.11800
C32         C  0.14885535  0.87573178  0.57513110     0.02800
C33         C  0.11396671  0.88173005  0.59411372    -0.11300
H34         H  0.14744659  0.92140928  0.67762453     0.08400
H35         H  0.21067687  0.88207323  0.58072722     0.06000
H36         H  0.08684667  0.87212347  0.58094208     0.05800
C37         C  0.63021722  0.74916861  0.46884600     0.02800
C38         C  0.66611899  0.73904448  0.45327694    -0.13300
C39         C  0.69878222  0.73440889  0.47798723     0.00300
C40         C  0.69455281  0.74100518  0.51780638    -0.11800
C41         C  0.65885440  0.75063228  0.53357716     0.02800
C42         C  0.62729974  0.75463997  0.50886112    -0.11300
H43         H  0.66864641  0.73523360  0.42241229     0.08400
H44         H  0.71927223  0.73779419  0.53668667     0.06000
H45         H  0.60014371  0.76267735  0.52084574     0.05800
C46         C  0.38269501  0.85375283  0.46217183     0.02800
C47         C  0.34603276  0.86291041  0.44621907    -0.13300
C48         C  0.31454911  0.86920790  0.47101674     0.00300
C49         C  0.32021961  0.86379723  0.51102874    -0.11800
C50         C  0.35644065  0.85471290  0.52701613     0.02800
C51         C  0.38740681  0.85068173  0.50252391    -0.11300
H52         H  0.34204870  0.86474513  0.41510621     0.08400
H53         H  0.29590838  0.86658465  0.52980257     0.06000
H54         H  0.41502330  0.84312347  0.51485929     0.05800
C55         C  0.71793707  0.61368771  0.92500213     0.02800
C56         C  0.71350040  0.57426441  0.92506057    -0.13300
C57         C  0.69659995  0.55561096  0.89358264     0.00300
C58         C  0.68510567  0.57672846  0.86071361    -0.11800
C59         C  0.69151232  0.61614340  0.85879491     0.02800
C60         C  0.70803794  0.63462303  0.89129381    -0.11300
H61         H  0.72143739  0.55812295  0.95074030     0.08400
H62         H  0.67216321  0.56233671  0.83612992     0.06000
H63         H  0.71270135  0.66495586  0.89054209     0.05800
C64         C  0.83176924  0.61145083  0.18591823     0.02800
C65         C  0.84039994  0.63478205  0.21776071    -0.13300
C66         C  0.85438619  0.61941347  0.25316532     0.00300
C67         C  0.85951149  0.58021772  0.25605287    -0.11800
C68         C  0.84852502  0.55645670  0.22536544     0.02800
C69         C  0.83420158  0.57232301  0.19091649    -0.11300
H70         H  0.83714532  0.66485444  0.21470127     0.08400
H71         H  0.87010473  0.56789833  0.28291183     0.06000
H72         H  0.82592606  0.55408183  0.16719512     0.05800
Zr73       Zr  0.68443872  0.32191381  0.94905315     2.17500
O74         O  0.71958530  0.26470964  0.94139692    -0.51600
O75         O  0.68175214  0.31741202  0.01993596    -0.74800
O76         O  0.75162452  0.33064008  0.97086989    -0.81600
O77         O  0.60141604  0.27652963  0.89307001    -0.83400
O78         O  0.77181686  0.39186573  0.95943821    -0.79000
O79         O  0.64389397  0.26136194  0.94055061    -0.90600
O80         O  0.64616602  0.36567535  0.03963178    -0.76600
O81         O  0.68874102  0.38441210  0.97415646    -0.86100
O82         O  0.62116378  0.34032598  0.96275395    -0.85800
O83         O  0.71586921  0.36306429  0.90086123    -0.72500
O84         O  0.65245427  0.32288325  0.88725671    -0.84600
Zr85       Zr  0.62038967  0.44274488  0.87738952     2.26400
Zr86       Zr  0.71920328  0.42549253  0.92697913     2.06300
Zr87       Zr  0.58920341  0.34129286  0.90098671     2.10000
Zr88       Zr  0.62520114  0.40304852  0.98606541     1.78800
O89         O  0.54663734  0.30768813  0.85565850    -0.93400
O90         O  0.65666297  0.44701588  0.03085879    -0.41300
O91         O  0.59098951  0.40303070  0.92612310    -0.77900
O92         O  0.65468660  0.44479718  0.93900787    -0.96600
O93         O  0.68518911  0.42520467  0.86661848    -0.89900
O94         O  0.61661407  0.38145009  0.85077263    -0.92700
C95         C  0.66678529  0.33734412  0.04602985     1.01000
C96         C  0.61626156  0.25246856  0.91604740     1.14000
C97         C  0.77703088  0.35811136  0.97247663     1.04700
O98         O  0.74573349  0.46318869  0.97982014    -0.94900
O99         O  0.71458856  0.49292827  0.90952086    -0.90600
O100        O  0.65359795  0.50314700  0.88722765    -0.83800
C101        C  0.68802707  0.51451584  0.89660636     1.11400
O102        O  0.70632746  0.30425310  0.82190335    -0.96900
Zr103      Zr  0.68157984  0.36443721  0.84002350     1.88900
O104        O  0.63831998  0.45783210  0.80993514    -0.73500
O105        O  0.77439938  0.43870972  0.88500256    -0.52800
O106        O  0.74807297  0.37047360  0.81754036    -0.97400
O107        O  0.64544134  0.33854066  0.78489122    -0.54700
O108        O  0.68460609  0.41751503  0.79534915    -0.74000
C109        C  0.66585085  0.44724506  0.78859283     0.98300
O110        O  0.58412116  0.49761205  0.85819564    -0.62800
O111        O  0.54919125  0.32088196  0.95580203    -0.57600
O112        O  0.54821387  0.43450147  0.88544757    -0.94300
O113        O  0.53243404  0.37221953  0.88136277    -0.92800
O114        O  0.56359483  0.38187010  0.01420244    -0.93100
O115        O  0.58557269  0.45425126  0.00505808    -0.91900
C116        C  0.52314652  0.40622256  0.88511347     1.17200
H117        H  0.61046521  0.32277244  0.98197427     0.33100
H118        H  0.65506664  0.46949060  0.95012530     0.44000
H119        H  0.60071224  0.38106252  0.82760380     0.37500
H120        H  0.74163169  0.35488375  0.89640376     0.34000
H121        H  0.64387502  0.44162650  0.05600439     0.25800
H122        H  0.79154751  0.45632199  0.89982347     0.31700
H123        H  0.74598018  0.37504072  0.78921736     0.37600
H124        H  0.54377861  0.38958672  0.99506161     0.32100
H125        H  0.52417083  0.33265791  0.95193750     0.30900
H126        H  0.55591326  0.31605392  0.82972115     0.32600
H127        H  0.63343827  0.36023021  0.77182813     0.31600
H128        H  0.57423606  0.46367947  0.98044047     0.35600
H129        H  0.56518091  0.48885476  0.83827863     0.28300
H130        H  0.73067416  0.25895033  0.96730318     0.32600
H131        H  0.71110371  0.30638394  0.79371565     0.35400
H132        H  0.54417274  0.29351127  0.95292367     0.28000
H133        H  0.56853451  0.50368618  0.88089205     0.40900
H134        H  0.72418210  0.47851867  0.98785692     0.30900
H135        H  0.68301972  0.43780085  0.03464332     0.38600
H136        H  0.62358749  0.32337600  0.79635696     0.30400
H137        H  0.78830238  0.41499180  0.88497881     0.30500
H138        H  0.74208419  0.27234903  0.92512844     0.30700
Zr139      Zr  0.40575287  0.86187313  0.65836870     2.17500
O140        O  0.45653135  0.84169779  0.61612661    -0.51600
O141        O  0.41624500  0.79771170  0.68094272    -0.74800
O142        O  0.46955822  0.87623736  0.68617465    -0.81600
O143        O  0.33153096  0.83653491  0.58758146    -0.83400
O144        O  0.46146661  0.90439712  0.74392228    -0.79000
O145        O  0.39203386  0.86061351  0.58749996    -0.90600
O146        O  0.37551370  0.78380932  0.73074022    -0.76600
O147        O  0.39044139  0.85767233  0.72579389    -0.86100
O148        O  0.34225142  0.83327346  0.66360329    -0.85800
O149        O  0.41190424  0.92537731  0.68241237    -0.72500
O150        O  0.36471492  0.90424680  0.62451839    -0.84600
Zr151      Zr  0.28907311  0.93648504  0.71872730     2.26400
Zr152      Zr  0.39387960  0.92027948  0.74968446     2.06300
Zr153      Zr  0.30102213  0.87645844  0.63098515     2.10000
Zr154      Zr  0.32686404  0.83040121  0.73042702     1.78800
O155        O  0.28253354  0.91662017  0.57634801    -0.93400
O156        O  0.33844083  0.81433687  0.79838314    -0.41300
O157        O  0.28472902  0.87230859  0.69783350    -0.77900
O158        O  0.32927540  0.89308856  0.75407779    -0.96600
O159        O  0.35368223  0.96161288  0.71486547    -0.89900
O160        O  0.30509891  0.94057569  0.65164289    -0.92700
C161        C  0.40443374  0.77688641  0.70966344     1.01000
C162        C  0.36097140  0.84925470  0.56940730     1.14000
C163        C  0.48252123  0.88986215  0.71817450     1.04700
O164        O  0.41190254  0.89253060  0.81204223    -0.94900
O165        O  0.36072175  0.95264506  0.80123818    -0.90600
O166        O  0.29655729  0.95531889  0.78580495    -0.83800
C167        C  0.32568980  0.96088005  0.80872017     1.11400
O168        O  0.40225572  0.96816297  0.58623917    -0.96900
Zr169      Zr  0.36972562  0.96667656  0.64856090     1.88900
O170        O  0.29588621  0.00585699  0.71395196    -0.73500
O171        O  0.43048267  0.97932115  0.76028689    -0.52800
O172        O  0.42982402  0.00453518  0.65507861    -0.97400
O173        O  0.33649806  0.00649467  0.60149652    -0.54700
O174        O  0.35208998  0.02161115  0.68286411    -0.74000
C175        C  0.32277837  0.02982317  0.70267986     0.98300
O176        O  0.22996984  0.93568212  0.75644239    -0.62800
O177        O  0.25494441  0.83086856  0.60210449    -0.57600
O178        O  0.23035922  0.93197305  0.67603353    -0.94300
O179        O  0.23766230  0.87376069  0.65575358    -0.92800
O180        O  0.29035022  0.77701966  0.70299824    -0.93100
O181        O  0.26932847  0.81370109  0.76799550    -0.91900
C182        C  0.21873509  0.90332146  0.65598003     1.17200
H183        H  0.34068207  0.80842214  0.65279865     0.33100
H184        H  0.32163146  0.89082703  0.78084248     0.44000
H185        H  0.28745183  0.95612369  0.63739495     0.37500
H186        H  0.43774512  0.93617874  0.67949423     0.34000
H187        H  0.33787588  0.78646536  0.79963508     0.25800
H188        H  0.45155742  0.97264865  0.77843945     0.31700
H189        H  0.42344636  0.02999008  0.64548890     0.37600
H190        H  0.29894359  0.75487519  0.71812759     0.32100
H191        H  0.25912910  0.83180081  0.57382608     0.30900
H192        H  0.30704639  0.92943600  0.56776897     0.32600
H193        H  0.35279443  0.03008398  0.59984786     0.31600
H194        H  0.25836089  0.83814649  0.77386104     0.35600
H195        H  0.21490322  0.95645610  0.74541901     0.28300
H196        H  0.47309866  0.82570648  0.63254500     0.32600
H197        H  0.41019834  0.99485251  0.58091141     0.35400
H198        H  0.26360377  0.80589432  0.61088396     0.28000
H199        H  0.21524937  0.91234698  0.74910419     0.40900
H200        H  0.42422627  0.86891207  0.80562678     0.30900
H201        H  0.36587211  0.82208261  0.80308724     0.38600
H202        H  0.31275058  0.01398824  0.61438433     0.30400
H203        H  0.44359169  0.98519128  0.73541791     0.30500
H204        H  0.47279824  0.86472271  0.61037958     0.30700
C205        C  0.10270026  0.66197682  0.37843861     0.02800
C206        C  0.06205950  0.65890585  0.38188462    -0.13300
C207        C  0.04214330  0.68753720  0.39844925     0.00300
C208        C  0.06409470  0.71797114  0.41478204    -0.11800
C209        C  0.10442437  0.72305067  0.40975569     0.02800
C210        C  0.12361492  0.69454322  0.39135645    -0.11300
H211        H  0.04585029  0.63503972  0.36986474     0.08400
H212        H  0.04914595  0.74039292  0.42789214     0.06000
H213        H  0.15407642  0.69860059  0.38489920     0.05800
C214        C  0.10107558  0.41899964  0.27986679     0.02800
C215        C  0.06105889  0.42329045  0.28294462    -0.13300
C216        C  0.03501410  0.39288811  0.27707308     0.00300
C217        C  0.04938981  0.35797661  0.26704430    -0.11800
C218        C  0.08890731  0.35384113  0.26069727     0.02800
C219        C  0.11500297  0.38468978  0.26730912    -0.11300
H220        H  0.05037426  0.44995413  0.29174889     0.08400
H221        H  0.02969447  0.33393028  0.26315448     0.06000
H222        H  0.14581048  0.38150849  0.26459260     0.05800
Zr223      Zr  0.90323218  0.64793444  0.38056493     2.17500
O224        O  0.94869554  0.59929948  0.36803220    -0.51600
O225        O  0.88730320  0.63370521  0.31275478    -0.74800
O226        O  0.87388412  0.58607420  0.39378041    -0.81600
O227        O  0.98744741  0.72347451  0.39679426    -0.83400
O228        O  0.81417958  0.59154884  0.41996956    -0.79000
O229        O  0.97582719  0.66099297  0.38753292    -0.90600
O230        O  0.83939908  0.67120540  0.29248649    -0.76600
O231        O  0.83597509  0.65977354  0.36937955    -0.86100
O232        O  0.90099358  0.70800684  0.34933804    -0.85800
O233        O  0.87009468  0.64368644  0.44224188    -0.72500
O234        O  0.92954994  0.69039843  0.42657363    -0.84600
Zr235      Zr  0.83380308  0.76228952  0.45005869     2.26400
Zr236      Zr  0.80325990  0.65873256  0.43050953     2.06300
Zr237      Zr  0.92600982  0.75073163  0.39670554     2.10000
Zr238      Zr  0.83445268  0.72061384  0.34036242     1.78800
O239        O  0.96847859  0.79078740  0.43658730    -0.93400
O240        O  0.76781841  0.70618651  0.31963635    -0.41300
O241        O  0.86111775  0.75691154  0.38947101    -0.77900
O242        O  0.80318830  0.72111902  0.40205322    -0.96600
O243        O  0.83305208  0.69984530  0.47683601    -0.89900
O244        O  0.89954547  0.74859944  0.46071935    -0.92700
C245        C  0.86117299  0.64329446  0.28803382     1.01000
C246        C  0.99913099  0.69018586  0.39382900     1.14000
C247        C  0.84176085  0.57214654  0.40696817     1.04700
O248        O  0.74761932  0.63537454  0.39288890    -0.94900
O249        O  0.74542802  0.69209728  0.45284573    -0.90600
O250        O  0.76428988  0.75329862  0.46408966    -0.83800
C251        C  0.73843732  0.72596668  0.46341444     1.11400
O252        O  0.95691244  0.65086226  0.49880827    -0.96900
Zr253      Zr  0.89886017  0.68596136  0.48757383     1.88900
O254        O  0.84376179  0.76017926  0.52272153    -0.73500
O255        O  0.78262636  0.62683424  0.49039538    -0.52800
O256        O  0.89114361  0.62940298  0.52845810    -0.97400
O257        O  0.94250781  0.72437562  0.52800368    -0.54700
O258        O  0.85682432  0.70013707  0.53868376    -0.74000
C259        C  0.84827447  0.73300180  0.54801350     0.98300
O260        O  0.79498060  0.81768231  0.45421611    -0.62800
O261        O  0.95701849  0.77181639  0.33622748    -0.57600
O262        O  0.87350180  0.82319189  0.43885272    -0.94300
O263        O  0.90434404  0.81178423  0.38398516    -0.92800
O264        O  0.86786367  0.75618913  0.28866541    -0.93100
O265        O  0.80042497  0.77393666  0.31378998    -0.91900
C266        C  0.89660361  0.83372994  0.41086994     1.17200
H267        H  0.91531221  0.70913029  0.32549454     0.33100
H268        H  0.77711598  0.72837489  0.39670488     0.44000
H269        H  0.91190861  0.76679420  0.47763693     0.37500
H270        H  0.87211355  0.61931043  0.45468947     0.34000
H271        H  0.76895917  0.70380011  0.29115506     0.25800
H272        H  0.76466635  0.60607192  0.48197771     0.31700
H273        H  0.89781619  0.63779016  0.55495384     0.37600
H274        H  0.86327481  0.74094659  0.26526358     0.32100
H275        H  0.97375466  0.79400944  0.34299771     0.30900
H276        H  0.98129370  0.77330011  0.45482474     0.32600
H277        H  0.96734824  0.72590095  0.51402306     0.31600
H278        H  0.80468490  0.79379735  0.33319631     0.35600
H279        H  0.80815041  0.83380869  0.47380429     0.28300
H280        H  0.93536493  0.58227157  0.34937266     0.32600
H281        H  0.95746280  0.63340455  0.47690061     0.35400
H282        H  0.97525593  0.75227791  0.32981051     0.28000
H283        H  0.79860114  0.83158576  0.42927093     0.40900
H284        H  0.75830154  0.61827763  0.37391037     0.30900
H285        H  0.76195420  0.68019902  0.32937056     0.38600
H286        H  0.94743103  0.70840921  0.55124017     0.30400
H287        H  0.80583202  0.61416411  0.50008117     0.30500
H288        H  0.95015637  0.58423745  0.39244997     0.30700
C289        C  0.88415584  0.34092512  0.98673949     0.02800
C290        C  0.88580659  0.33534697  0.02700255    -0.13300
C291        C  0.85314659  0.33824448  0.04992705     0.00300
C292        C  0.81736187  0.34488658  0.03181577    -0.11800
C293        C  0.81476217  0.35007492  0.99115045     0.02800
C294        C  0.84842963  0.34812703  0.96873973    -0.11300
H295        H  0.91343481  0.33055024  0.04098069     0.08400
H296        H  0.79219563  0.34840359  0.04937737     0.06000
H297        H  0.84688130  0.35241861  0.93761263     0.05800
C298        C  0.14149390  0.25861862  0.98602907     0.02800
C299        C  0.17447303  0.25011757  0.96490466    -0.13300
C300        C  0.20714145  0.23653512  0.98447870     0.00300
C301        C  0.20660227  0.23163112  0.02481234    -0.11800
C302        C  0.17456512  0.24159161  0.04604276     0.02800
C303        C  0.14249920  0.25566701  0.02663356    -0.11300
H304        H  0.17440348  0.25325510  0.93363103     0.08400
H305        H  0.23150091  0.22059848  0.03979374     0.06000
H306        H  0.11731224  0.26244820  0.04301712     0.05800
Zr307      Zr  0.90678468  0.44092221  0.26246103     2.17500
O308        O  0.95371915  0.49121258  0.27964837    -0.51600
O309        O  0.88597717  0.45620447  0.32707203    -0.74800
O310        O  0.88274074  0.50274324  0.24501750    -0.81600
O311        O  0.97323889  0.36798121  0.29322977    -0.83400
O312        O  0.82537991  0.49401599  0.21276471    -0.79000
O313        O  0.97631951  0.42637210  0.26756071    -0.90600
O314        O  0.83368683  0.41795824  0.34188756    -0.76600
O315        O  0.83850517  0.42754672  0.26546574    -0.86100
O316        O  0.89765845  0.38095670  0.29445130    -0.85800
O317        O  0.88294760  0.44278592  0.19628922    -0.72500
O318        O  0.93691474  0.39723519  0.22201341    -0.84600
Zr319      Zr  0.83792523  0.32349878  0.18853645     2.26400
Zr320      Zr  0.81462222  0.42688935  0.20014185     2.06300
Zr321      Zr  0.92607063  0.33690824  0.25273586     2.10000
Zr322      Zr  0.82981048  0.36747939  0.29613625     1.78800
O323        O  0.97842553  0.31538767  0.21365978    -0.93400
O324        O  0.76227519  0.37917944  0.30826472    -0.41300
O325        O  0.85824064  0.32326982  0.25547904    -0.77900
O326        O  0.80603301  0.36574161  0.23070406    -0.96600
O327        O  0.84606695  0.38472962  0.15975644    -0.89900
O328        O  0.90591154  0.33723485  0.18601006    -0.92700
C329        C  0.85690187  0.44628483  0.34822653     1.01000
C330        C  0.99275104  0.39667110  0.28061403     1.14000
C331        C  0.85225175  0.51508320  0.22838064     1.04700
O332        O  0.75456919  0.44959938  0.22488701    -0.94900
O333        O  0.75939286  0.39226160  0.16972555    -0.90600
O334        O  0.77363235  0.33056296  0.16389640    -0.83800
C335        C  0.75124229  0.35800297  0.15976349     1.11400
O336        O  0.97435702  0.43590290  0.15464996    -0.96900
Zr337      Zr  0.91353406  0.39847807  0.15680364     1.88900
O338        O  0.84244765  0.32221690  0.11729696    -0.73500
O339        O  0.80646521  0.45791036  0.13718515    -0.52800
O340        O  0.90573945  0.45120428  0.11140836    -0.97400
O341        O  0.96366227  0.36477867  0.12479815    -0.54700
O342        O  0.88371316  0.37109715  0.09996013    -0.74000
C343        C  0.85976391  0.34383276  0.09184203     0.98300
O344        O  0.79405947  0.26815026  0.19504978    -0.62800
O345        O  0.95450352  0.29100082  0.29688482    -0.57600
O346        O  0.87384387  0.26539715  0.19757815    -0.94300
O347        O  0.88832106  0.27906970  0.25836562    -0.92800
O348        O  0.85660508  0.33579084  0.35300524    -0.93100
O349        O  0.79037173  0.31341886  0.31954736    -0.91900
C350        C  0.88877700  0.25652292  0.23051339     1.17200
H351        H  0.90884912  0.38097022  0.32022987     0.33100
H352        H  0.77889941  0.35847814  0.23243258     0.44000
H353        H  0.91840009  0.31862944  0.17122090     0.37500
H354        H  0.88776412  0.46725631  0.18424387     0.34000
H355        H  0.76122195  0.38409469  0.33633332     0.25800
H356        H  0.78593852  0.47588553  0.14114583     0.31700
H357        H  0.91697419  0.44305268  0.08690403     0.37600
H358        H  0.84228312  0.34535960  0.37510684     0.32100
H359        H  0.98263977  0.29268317  0.29216469     0.30900
H360        H  0.99026841  0.33863991  0.20169587     0.32600
H361        H  0.96894438  0.37935240  0.10052420     0.31600
H362        H  0.78484329  0.29839233  0.29617856     0.35600
H363        H  0.80311002  0.24985408  0.17637330     0.28300
H364        H  0.93947686  0.50880446  0.29541058     0.32600
H365        H  0.97873156  0.44283995  0.12707784     0.35400
H366        H  0.95151187  0.30107404  0.32312494     0.28000
H367        H  0.79985829  0.25707703  0.22092916     0.40900
H368        H  0.76197179  0.46156368  0.24966102     0.30900
H369        H  0.75814219  0.40391015  0.29554953     0.38600
H370        H  0.95102082  0.34092513  0.11591906     0.30400
H371        H  0.83030837  0.47399632  0.13366972     0.30500
H372        H  0.95930013  0.50521685  0.25508926     0.30700
C373        C  0.38234500  0.25861881  0.14166546     0.02800
C374        C  0.38049855  0.26196977  0.10120279    -0.13300
C375        C  0.34741817  0.24965515  0.08080557     0.00300
C376        C  0.31515544  0.23492669  0.10157766    -0.11800
C377        C  0.31585173  0.23372475  0.14255469     0.02800
C378        C  0.34956871  0.24605853  0.16233123    -0.11300
H379        H  0.40622049  0.27113369  0.08533149     0.08400
H380        H  0.29003667  0.22374931  0.08594444     0.06000
H381        H  0.35106807  0.24382647  0.19366765     0.05800
C382        C  0.64528907  0.33126081  0.15073127     0.02800
C383        C  0.64218274  0.32434021  0.11109600    -0.13300
C384        C  0.67415239  0.32980627  0.08706054     0.00300
C385        C  0.70995937  0.34116839  0.10320145    -0.11800
C386        C  0.71329304  0.34835270  0.14292730     0.02800
C387        C  0.68094322  0.34310193  0.16684202    -0.11300
H388        H  0.61404829  0.31714847  0.09843664     0.08400
H389        H  0.73453929  0.34687861  0.08457719     0.06000
H390        H  0.68345520  0.34824621  0.19759704     0.05800
C391        C  0.29136637  0.97730897  0.91087469     0.02800
C392        C  0.30024699  0.95871599  0.87672762    -0.13300
C393        C  0.31816021  0.97903397  0.84576877     0.00300
C394        C  0.32717845  0.01773157  0.84948421    -0.11800
C395        C  0.31668515  0.03657438  0.88285396     0.02800
C396        C  0.29802779  0.01638860  0.91279044    -0.11300
H397        H  0.29403200  0.92869536  0.87458003     0.08400
H398        H  0.34141277  0.03336288  0.82599016     0.06000
H399        H  0.29051889  0.03083967  0.93879320     0.05800
C400        C  0.18293383  0.97831496  0.16319146     0.02800
C401        C  0.19052612  0.01743456  0.16434060    -0.13300
C402        C  0.18879552  0.03644266  0.19904837     0.00300
C403        C  0.17813608  0.01583727  0.23317010    -0.11800
C404        C  0.16986912  0.97671010  0.23289211     0.02800
C405        C  0.17340043  0.95793873  0.19762775    -0.11300
H406        H  0.19902717  0.03296516  0.13820026     0.08400
H407        H  0.17711920  0.03000349  0.26036744     0.06000
H408        H  0.16846992  0.92766195  0.19687627     0.05800
Zr409      Zr  0.33499441  0.26583120  0.94176250     2.17500
O410        O  0.30264568  0.32521641  0.94487994    -0.51600
O411        O  0.34159584  0.26608133  0.01318239    -0.74800
O412        O  0.26688327  0.25716617  0.95846442    -0.81600
O413        O  0.42010515  0.31536302  0.88913625    -0.83400
O414        O  0.24923096  0.19466086  0.95596331    -0.79000
O415        O  0.37171315  0.32775282  0.93006480    -0.90600
O416        O  0.36853955  0.21155995  0.03268179    -0.76600
O417        O  0.33235379  0.20283174  0.96806191    -0.86100
O418        O  0.39976141  0.24767452  0.95048261    -0.85800
O419        O  0.30052537  0.22643038  0.89511163    -0.72500
O420        O  0.36135413  0.26813977  0.87761972    -0.84600
Zr421      Zr  0.39570644  0.14825860  0.86880545     2.26400
Zr422      Zr  0.29985908  0.16318523  0.92196597     2.06300
Zr423      Zr  0.42580476  0.24930791  0.88628417     2.10000
Zr424      Zr  0.39687140  0.18493722  0.97708182     1.78800
O425        O  0.44954329  0.27418228  0.82427831    -0.93400
O426        O  0.37835327  0.13188430  0.01985346    -0.41300
O427        O  0.42572834  0.18832315  0.91520772    -0.77900
O428        O  0.36499118  0.14380773  0.93168683    -0.96600
O429        O  0.32992971  0.16504325  0.86028871    -0.89900
O430        O  0.39560901  0.20951133  0.83923457    -0.92700
C431        C  0.35197859  0.24205030  0.03942466     1.01000
C432        C  0.40121957  0.33800355  0.90882179     1.14000
C433        C  0.24299619  0.22896588  0.96421610     1.04700
O434        O  0.28242682  0.12123212  0.97633026    -0.94900
O435        O  0.30135864  0.09791910  0.90134303    -0.90600
O436        O  0.36155265  0.08794634  0.87869245    -0.83800
C437        C  0.32700512  0.07682098  0.88767346     1.11400
O438        O  0.29968062  0.28348673  0.80917828    -0.96900
Zr439      Zr  0.32980887  0.22651474  0.83267623     1.88900
O440        O  0.37721633  0.13710362  0.80078351    -0.73500
O441        O  0.24004511  0.15052731  0.88574372    -0.52800
O442        O  0.26137515  0.21420291  0.81800446    -0.97400
O443        O  0.35869690  0.25753491  0.77559810    -0.54700
O444        O  0.32893420  0.17650749  0.78711235    -0.74000
C445        C  0.34897589  0.14831331  0.77949837     0.98300
O446        O  0.43245608  0.09557817  0.84782401    -0.62800
O447        O  0.48055996  0.27580600  0.92199206    -0.57600
O448        O  0.46797868  0.15675330  0.88178192    -0.94300
O449        O  0.48415066  0.21880596  0.87416949    -0.92800
O450        O  0.45326149  0.21329107  0.01001880    -0.93100
O451        O  0.44802809  0.14071082  0.98639923    -0.91900
C452        C  0.49330049  0.18503374  0.88142727     1.17200
H453        H  0.41353362  0.26488429  0.96756555     0.33100
H454        H  0.36521918  0.11860631  0.94261724     0.44000
H455        H  0.40923060  0.21036127  0.81498967     0.37500
H456        H  0.27445409  0.23442669  0.89134016     0.34000
H457        H  0.39067827  0.13800039  0.04509854     0.25800
H458        H  0.22419140  0.13369174  0.90309101     0.31700
H459        H  0.26043733  0.20463429  0.79129780     0.37600
H460        H  0.44308294  0.23260795  0.02687086     0.32100
H461        H  0.49221114  0.29459886  0.90357337     0.30900
H462        H  0.46857273  0.29467840  0.83099088     0.32600
H463        H  0.37244363  0.23781973  0.76227872     0.31600
H464        H  0.45136434  0.12968399  0.96064178     0.35600
H465        H  0.45183084  0.10657867  0.82945979     0.28300
H466        H  0.29174691  0.32574711  0.97123921     0.32600
H467        H  0.28732186  0.27704192  0.78402946     0.35400
H468        H  0.46954978  0.29082863  0.94255422     0.28000
H469        H  0.44756322  0.08741219  0.87079234     0.40900
H470        H  0.28123723  0.13790160  0.99881243     0.30900
H471        H  0.35038568  0.13429524  0.02416929     0.38600
H472        H  0.37944218  0.27468323  0.78593268     0.30400
H473        H  0.22670797  0.17457943  0.88512593     0.30500
H474        H  0.27996800  0.32270736  0.92723849     0.30700
C475        C  0.16131012  0.12541955  0.44830795     0.02800
C476        C  0.16854164  0.08739295  0.44164755    -0.13300
C477        C  0.15934642  0.07140277  0.40590970     0.00300
C478        C  0.14397631  0.09451755  0.37644246    -0.11800
C479        C  0.13975443  0.13332076  0.38159708     0.02800
C480        C  0.14735495  0.14834298  0.41799080    -0.11300
H481        H  0.18081457  0.07014001  0.46450776     0.08400
H482        H  0.13740140  0.08275633  0.34847975     0.06000
H483        H  0.14499211  0.17829291  0.42197454     0.05800
C484        C  0.30129511  0.13027348  0.68275152     0.02800
C485        C  0.30111634  0.09114034  0.68102099    -0.13300
C486        C  0.31919368  0.07002252  0.70983495     0.00300
C487        C  0.33780282  0.08841990  0.74127130    -0.11800
C488        C  0.33675551  0.12799419  0.74402467     0.02800
C489        C  0.31858983  0.14857091  0.71417491    -0.11300
H490        H  0.28777788  0.07711131  0.65633761     0.08400
H491        H  0.35194372  0.07207372  0.76367423     0.06000
H492        H  0.31763069  0.17895610  0.71538282     0.05800
Zr493      Zr  0.11271922  0.22260944  0.27905252     2.17500
O494        O  0.11296434  0.25186711  0.34224401    -0.51600
O495        O  0.04185179  0.21094896  0.27423465    -0.74800
O496        O  0.09705550  0.28910358  0.27424151    -0.81600
O497        O  0.17082819  0.15672060  0.32667840    -0.83400
O498        O  0.11720608  0.31334020  0.21577629    -0.79000
O499        O  0.11295653  0.17936773  0.33667388    -0.90600
O500        O  0.02732232  0.19517832  0.21227803    -0.76600
O501        O  0.09154582  0.22724299  0.21319935    -0.86100
O502        O  0.10447410  0.15954801  0.25752354    -0.85800
O503        O  0.16397077  0.25714901  0.24438695    -0.72500
O504        O  0.17632001  0.19771779  0.28338107    -0.84600
Zr505      Zr  0.19383258  0.16950066  0.16112198     2.26400
Zr506      Zr  0.14156057  0.26129549  0.17835150     2.06300
Zr507      Zr  0.16758200  0.13466121  0.26224255     2.10000
Zr508      Zr  0.08336810  0.16428594  0.19172404     1.78800
O509        O  0.20486789  0.09633509  0.30733090    -0.93400
O510        O  0.04815034  0.17917682  0.13218520    -0.41300
O511        O  0.14435901  0.13571128  0.19681344    -0.77900
O512        O  0.13187084  0.19801914  0.15522888    -0.96600
O513        O  0.20265033  0.23295186  0.18198676    -0.89900
O514        O  0.21827722  0.16670366  0.22571019    -0.92700
C515        C  0.01767098  0.20417427  0.24620112     1.01000
C516        C  0.14066995  0.15816316  0.34686554     1.14000
C517        C  0.10216567  0.31647766  0.24949620     1.04700
O518        O  0.08631724  0.28294141  0.14121722    -0.94900
O519        O  0.15909773  0.25841907  0.10993716    -0.90600
O520        O  0.18419214  0.20131936  0.09939659    -0.83800
C521        C  0.17299938  0.23365840  0.08790826     1.11400
O522        O  0.24338867  0.25695469  0.30902259    -0.96900
Zr523      Zr  0.22609501  0.23008694  0.24645899     1.88900
O524        O  0.26050389  0.19254050  0.15137615    -0.73500
O525        O  0.18208206  0.31735739  0.16306092    -0.52800
O526        O  0.24401345  0.29715996  0.24296530    -0.97400
O527        O  0.27960560  0.19849981  0.27793814    -0.54700
O528        O  0.27454600  0.23697855  0.19620582    -0.74000
C529        C  0.28165135  0.21991958  0.16489489     0.98300
O530        O  0.21379732  0.13574859  0.10450518    -0.62800
O531        O  0.11725526  0.08482083  0.27113123    -0.57600
O532        O  0.18980421  0.09945739  0.17051695    -0.94300
O533        O  0.20719885  0.09119123  0.23252043    -0.92800
O534        O  0.04249494  0.11376341  0.22049920    -0.93100
O535        O  0.07475999  0.11174714  0.14798439    -0.91900
C536        C  0.19681909  0.07783243  0.20016654     1.17200
H537        H  0.08565361  0.14573239  0.27344873     0.33100
H538        H  0.12183585  0.19785613  0.12905398     0.44000
H539        H  0.24231152  0.15396756  0.22691658     0.37500
H540        H  0.16804817  0.28185640  0.25509558     0.34000
H541        H  0.02099253  0.17088744  0.13741762     0.25800
H542        H  0.16463378  0.33446104  0.14910035     0.31700
H543        H  0.27248865  0.29855349  0.24039800     0.37600
H544        H  0.01609637  0.11835544  0.21070356     0.32100
H545        H  0.11243508  0.07496588  0.24484456     0.30900
H546        H  0.19146361  0.07125988  0.30931320     0.32600
H547        H  0.29573341  0.18998324  0.25663205     0.31600
H548        H  0.09636894  0.11522600  0.12952871     0.35600
H549        H  0.23468452  0.11955419  0.11373142     0.28300
H550        H  0.08763894  0.26348332  0.34417574     0.32600
H551        H  0.27138999  0.26384096  0.30784073     0.35400
H552        H  0.12906746  0.06390962  0.28554806     0.28000
H553        H  0.19181407  0.11813224  0.09802654     0.40900
H554        H  0.06456030  0.28129198  0.15961147     0.30900
H555        H  0.04795928  0.20701556  0.13114187     0.38600
H556        H  0.26786853  0.17509216  0.28969076     0.30400
H557        H  0.18742426  0.32942924  0.18823364     0.30500
H558        H  0.13218352  0.27330742  0.34031439     0.30700
C559        C  0.92079981  0.93948654  0.40890681     0.02800
C560        C  0.90147761  0.90469227  0.41800794    -0.13300
C561        C  0.91807481  0.87114765  0.40846685     0.00300
C562        C  0.95548935  0.87302694  0.39194937    -0.11800
C563        C  0.97671970  0.90740680  0.38484563     0.02800
C564        C  0.95871004  0.94060183  0.39354698    -0.11300
H565        H  0.87270475  0.90388268  0.43004970     0.08400
H566        H  0.96834614  0.84702139  0.38479505     0.06000
H567        H  0.97362831  0.96743338  0.38715771     0.05800
C568        C  0.92056235  0.17199205  0.28475999     0.02800
C569        C  0.96061052  0.17710473  0.28020782    -0.13300
C570        C  0.97591001  0.20339602  0.25342913     0.00300
C571        C  0.95074731  0.22514371  0.23098850    -0.11800
C572        C  0.91064662  0.22265673  0.23765445     0.02800
C573        C  0.89562521  0.19522229  0.26393379    -0.11300
H574        H  0.97994086  0.15939886  0.29657891     0.08400
H575        H  0.96263148  0.24596390  0.21060116     0.06000
H576        H  0.86485766  0.19317884  0.26947042     0.05800
Zr577      Zr  0.18018238  0.83968006  0.44241092     2.17500
O578        O  0.20938407  0.78148045  0.46438421    -0.51600
O579        O  0.17652457  0.85509113  0.51359131    -0.74800
O580        O  0.25049313  0.84816853  0.45352519    -0.81600
O581        O  0.10393169  0.78250030  0.38256080    -0.83400
O582        O  0.26466575  0.91154962  0.45013644    -0.79000
O583        O  0.14556191  0.77623830  0.43350079    -0.90600
O584        O  0.11389113  0.86284195  0.51769214    -0.76600
O585        O  0.17313428  0.90065682  0.46817009    -0.86100
O586        O  0.11232144  0.84841866  0.44129463    -0.85800
O587        O  0.21284573  0.88328178  0.39694618    -0.72500
O588        O  0.15863810  0.84384425  0.37802536    -0.84600
Zr589      Zr  0.11315407  0.95225635  0.36037578     2.26400
Zr590      Zr  0.20623982  0.94446815  0.42451237     2.06300
Zr591      Zr  0.09278242  0.84761906  0.37422973     2.10000
Zr592      Zr  0.10518159  0.90902882  0.46780733     1.78800
O593        O  0.08050411  0.82401746  0.30928230    -0.93400
O594        O  0.12712808  0.95327319  0.51716124    -0.41300
O595        O  0.08467350  0.90614521  0.40262734    -0.77900
O596        O  0.13763430  0.95453225  0.42656412    -0.96600
O597        O  0.18143661  0.94331833  0.35914094    -0.89900
O598        O  0.12119368  0.89331290  0.33042080    -0.92700
C599        C  0.14673028  0.86226393  0.53394665     1.01000
C600        C  0.12014050  0.76282423  0.40877508     1.14000
C601        C  0.27429084  0.87697330  0.45675393     1.04700
O602        O  0.22235050  0.97479776  0.48554873    -0.94900
O603        O  0.18989228  0.01199609  0.41649605    -0.90600
O604        O  0.13426606  0.01476905  0.38050924    -0.83800
C605        C  0.16214473  0.03023950  0.40012537     1.11400
O606        O  0.23625707  0.83776249  0.31508631    -0.96900
Zr607      Zr  0.18878895  0.88315037  0.33203188     1.88900
O608        O  0.13684087  0.96751057  0.29381847    -0.73500
O609        O  0.26100425  0.97427789  0.39028861    -0.52800
O610        O  0.25331147  0.91167608  0.32050762    -0.97400
O611        O  0.16926027  0.84025007  0.28059195    -0.54700
O612        O  0.18163973  0.92630479  0.27703860    -0.74000
C613        C  0.16182661  0.95532911  0.27009997     0.98300
O614        O  0.07193614  0.99789335  0.32889847    -0.62800
O615        O  0.03474349  0.81389164  0.39728811    -0.57600
O616        O  0.04152008  0.93685000  0.37252446    -0.94300
O617        O  0.03029297  0.87452150  0.36340304    -0.92800
O618        O  0.04218068  0.88520141  0.49034907    -0.93100
O619        O  0.05413085  0.95310892  0.47522068    -0.91900
C620        C  0.01817287  0.90696475  0.37128798     1.17200
H621        H  0.09842455  0.82893199  0.45604890     0.33100
H622        H  0.13201358  0.97744420  0.43931449     0.44000
H623        H  0.10986663  0.89256741  0.30476234     0.37500
H624        H  0.23949029  0.87796855  0.39296076     0.34000
H625        H  0.11281430  0.94492432  0.54060893     0.25800
H626        H  0.27383912  0.99093057  0.40959058     0.31700
H627        H  0.24936816  0.93856238  0.31430731     0.37600
H628        H  0.03248743  0.86821518  0.46971896     0.32100
H629        H  0.03180250  0.79095761  0.38164215     0.30900
H630        H  0.05553571  0.83447229  0.30129314     0.32600
H631        H  0.14983191  0.85362059  0.26491710     0.31600
H632        H  0.05376462  0.96763049  0.45042339     0.35600
H633        H  0.05392615  0.98293699  0.31218160     0.28300
H634        H  0.22283104  0.78759061  0.48910230     0.32600
H635        H  0.24543673  0.84562376  0.28892746     0.35400
H636        H  0.04153273  0.80490409  0.42368789     0.28000
H637        H  0.05563035  0.00716779  0.34969165     0.40900
H638        H  0.22972159  0.95407547  0.50339475     0.30900
H639        H  0.15422228  0.94728678  0.52306080     0.38600
H640        H  0.15444902  0.81938696  0.29384020     0.30400
H641        H  0.27919698  0.95394935  0.38685843     0.30500
H642        H  0.23031274  0.77727789  0.44590678     0.30700
C643        C  0.42032547  0.43994228  0.87626791     0.02800
C644        C  0.39895269  0.40788327  0.89085382    -0.13300
C645        C  0.41854606  0.37724978  0.90655461     0.00300
C646        C  0.45924507  0.38027688  0.90832000    -0.11800
C647        C  0.48097143  0.41067684  0.89142627     0.02800
C648        C  0.46120253  0.44128799  0.87703995    -0.11300
H649        H  0.36784595  0.40571242  0.88705550     0.08400
H650        H  0.47425166  0.35643102  0.91956969     0.06000
H651        H  0.47734348  0.46509807  0.86407903     0.05800
C652        C  0.42965850  0.68320859  0.75512884     0.02800
C653        C  0.46932157  0.68318012  0.74790741    -0.13300
C654        C  0.48786857  0.71269508  0.72699931     0.00300
C655        C  0.46609898  0.74245916  0.71248181    -0.11800
C656        C  0.42633945  0.74341535  0.72047187     0.02800
C657        C  0.40839377  0.71364021  0.74205334    -0.11300
H658        H  0.48573999  0.65963402  0.75823114     0.08400
H659        H  0.48047023  0.76570428  0.69674286     0.06000
H660        H  0.37793272  0.71405181  0.74877718     0.05800
C661        C  0.82575394  0.47336867  0.44753193     0.02800
C662        C  0.83596550  0.45182631  0.41620539    -0.13300
C663        C  0.84854126  0.46940664  0.38165386     0.00300
C664        C  0.85053213  0.50896408  0.37856338    -0.11800
C665        C  0.83794696  0.53072882  0.40914446     0.02800
C666        C  0.82534960  0.51269802  0.44340917    -0.11300
H667        H  0.83508478  0.42137295  0.41908104     0.08400
H668        H  0.86050928  0.52274259  0.35195681     0.06000
H669        H  0.81659929  0.52931945  0.46746256     0.05800
C670        C  0.71106714  0.47117227  0.69216221     0.02800
C671        C  0.69459062  0.45120005  0.72338293    -0.13300
C672        C  0.67849381  0.47013323  0.75414779     0.00300
C673        C  0.67877501  0.51002209  0.75265757    -0.11800
C674        C  0.69663821  0.53021065  0.72134993     0.02800
C675        C  0.71283418  0.51045661  0.69162042    -0.11300
H676        H  0.69395019  0.42068120  0.72337967     0.08400
H677        H  0.66565950  0.52512673  0.77558140     0.06000
H678        H  0.72508461  0.52571222  0.66676191     0.05800
Zr679      Zr  0.60766061  0.74077894  0.66409511     2.17500
O680        O  0.55777479  0.75808464  0.61732665    -0.51600
O681        O  0.59706945  0.80524197  0.68383107    -0.74800
O682        O  0.54355480  0.72726090  0.68985798    -0.81600
O683        O  0.68434109  0.76669314  0.59477886    -0.83400
O684        O  0.55031842  0.69617385  0.74780959    -0.79000
O685        O  0.62333902  0.74369280  0.59367889    -0.90600
O686        O  0.63662838  0.81837585  0.73511367    -0.76600
O687        O  0.62082016  0.74313686  0.73235863    -0.86100
O688        O  0.67069413  0.76927471  0.67134024    -0.85800
O689        O  0.60142446  0.67679421  0.69020606    -0.72500
O690        O  0.64908315  0.69865942  0.63365782    -0.84600
Zr691      Zr  0.72279904  0.66412561  0.73240566     2.26400
Zr692      Zr  0.61757079  0.68004640  0.75837176     2.06300
Zr693      Zr  0.71247496  0.72631492  0.64220698     2.10000
Zr694      Zr  0.68403825  0.77049620  0.73921969     1.78800
O695        O  0.73336957  0.68639153  0.59078041    -0.93400
O696        O  0.67030265  0.78366064  0.80645060    -0.41300
O697        O  0.72601778  0.72871331  0.70991274    -0.77900
O698        O  0.68198849  0.70711851  0.76481623    -0.96600
O699        O  0.65822156  0.63881446  0.72640626    -0.89900
O700        O  0.70852446  0.66154511  0.66448021    -0.92700
C701        C  0.60845995  0.82592576  0.71225569     1.01000
C702        C  0.65468089  0.75495925  0.57608402     1.14000
C703        C  0.52997975  0.71225512  0.72125651     1.04700
O704        O  0.59930288  0.70938946  0.81807412    -0.94900
O705        O  0.64951596  0.64562679  0.81241210    -0.90600
O706        O  0.71382273  0.64297020  0.79951686    -0.83800
C707        C  0.68437051  0.63667420  0.82145388     1.11400
O708        O  0.60555134  0.63377522  0.59949555    -0.96900
Zr709      Zr  0.64375986  0.63569887  0.65935083     1.88900
O710        O  0.71814227  0.59484318  0.72738256    -0.73500
O711        O  0.57759498  0.62329391  0.77228076    -0.52800
O712        O  0.58532303  0.59578064  0.66877233    -0.97400
O713        O  0.67751934  0.60135933  0.61055505    -0.54700
O714        O  0.66361884  0.57937631  0.69283669    -0.74000
C715        C  0.69238569  0.57082845  0.71435150     0.98300
O716        O  0.78082391  0.66251375  0.77298959    -0.62800
O717        O  0.76157309  0.76738671  0.61056378    -0.57600
O718        O  0.78342863  0.67536710  0.69416360    -0.94300
O719        O  0.76941079  0.73406038  0.68064024    -0.92800
O720        O  0.72206803  0.82381564  0.71203386    -0.93100
O721        O  0.74119002  0.78745831  0.77785558    -0.91900
C722        C  0.79268495  0.70786689  0.67893030     1.17200
H723        H  0.67265596  0.79425521  0.65970607     0.33100
H724        H  0.68912582  0.70869017  0.79185715     0.44000
H725        H  0.72672755  0.64630544  0.65179767     0.37500
H726        H  0.57562329  0.66614926  0.68634868     0.34000
H727        H  0.67211331  0.81146643  0.80784565     0.25800
H728        H  0.55968034  0.63062011  0.79264921     0.31700
H729        H  0.59247224  0.57031496  0.66129651     0.37600
H730        H  0.71124622  0.84623435  0.72358037     0.32100
H731        H  0.75795058  0.76481187  0.58231107     0.30900
H732        H  0.70908041  0.67712819  0.57810201     0.32600
H733        H  0.66036888  0.57900463  0.60519914     0.31600
H734        H  0.76178513  0.77212138  0.76764050     0.35600
H735        H  0.79733795  0.64401676  0.76110017     0.28300
H736        H  0.54044480  0.77434601  0.63135023     0.32600
H737        H  0.59807064  0.60695510  0.59536546     0.35400
H738        H  0.75435098  0.79335598  0.61596437     0.28000
H739        H  0.79458281  0.68725344  0.76867399     0.40900
H740        H  0.58243388  0.72989432  0.80977137     0.30900
H741        H  0.64240878  0.77699604  0.80927563     0.38600
H742        H  0.70003720  0.59079842  0.62416998     0.30400
H743        H  0.56103637  0.61983207  0.74895464     0.30500
H744        H  0.54214432  0.73454121  0.61279708     0.30700
C745        C  0.72440781  0.44463336  0.58908527    -0.11700
C746        C  0.76067340  0.42862937  0.59137797     0.14900
C747        C  0.77713474  0.42052279  0.62811237     0.01800
C748        C  0.75886970  0.43220265  0.66138771    -0.16000
C749        C  0.72443483  0.45136371  0.65844652    -0.10800
C750        C  0.70598100  0.45572186  0.62218045     0.08500
C751        C  0.78360500  0.43012510  0.55562087     0.09500
S752        S  0.82247485  0.39790213  0.63408928    -0.25200
H753        H  0.77269375  0.42835862  0.68943287     0.19800
S754        S  0.66062016  0.47831817  0.61595263    -0.30900
H755        H  0.71172042  0.45140038  0.56108680     0.10100
C756        C  0.76877814  0.41492175  0.52084229     0.03300
C757        C  0.78444851  0.42790013  0.48556490    -0.13200
C758        C  0.81525124  0.45491364  0.48473879    -0.08800
C759        C  0.83329925  0.46605957  0.51974659     0.06800
C760        C  0.81668783  0.45437544  0.55474526    -0.13900
S761        S  0.72873349  0.38055388  0.52136792    -0.30800
H762        H  0.77140858  0.41858127  0.45858556     0.11000
S763        S  0.87686397  0.49584137  0.52165223    -0.27900
H764        H  0.82844971  0.46596825  0.58137022     0.08200
H765        H  0.64592430  0.46781713  0.65260596     0.26700
H766        H  0.72773020  0.37425468  0.48129224     0.21500
H767        H  0.89156209  0.48445057  0.48619121     0.26800
H768        H  0.82149671  0.38079568  0.59775463     0.15600
C769        C  0.40191062  0.51692340  0.80336024    -0.11700
C770        C  0.38450444  0.54279792  0.82678821     0.14900
C771        C  0.37085134  0.53108829  0.86369964     0.01800
C772        C  0.37955919  0.49532867  0.87829921    -0.16000
C773        C  0.40100537  0.47112335  0.85634977    -0.10800
C774        C  0.40993986  0.48113426  0.81754957     0.08500
C775        C  0.38858437  0.58273543  0.81438218     0.09500
S776        S  0.34534988  0.56155449  0.89456022    -0.25200
H777        H  0.37213863  0.48751823  0.90788726     0.19800
S778        S  0.43446195  0.45067469  0.78577030    -0.30900
H779        H  0.41183776  0.52559657  0.77472429     0.10100
C780        C  0.41788535  0.60636257  0.83087225     0.03300
C781        C  0.42823054  0.64066220  0.81245717    -0.13200
C782        C  0.41141871  0.65102141  0.77686364    -0.08800
C783        C  0.38121829  0.62790840  0.76101101     0.06800
C784        C  0.36954630  0.59443154  0.78043306    -0.13900
S785        S  0.44532730  0.59110674  0.87280470    -0.30800
H786        H  0.45130887  0.65851782  0.82450284     0.11000
S787        S  0.35960394  0.63714440  0.71419620    -0.27900
H788        H  0.34786151  0.57573187  0.76721865     0.08200
H789        H  0.42180004  0.41677030  0.80427005     0.26700
H790        H  0.47249810  0.62173063  0.87320084     0.21500
H791        H  0.39434335  0.64926144  0.69617369     0.26800
H792        H  0.33381512  0.58671103  0.86510287     0.15600
C793        C  0.85801273  0.01879730  0.37912397    -0.11700
C794        C  0.88307080  0.04889608  0.38977876     0.14900
C795        C  0.91257391  0.04273925  0.41733109     0.01800
C796        C  0.92085339  0.00591396  0.42808659    -0.16000
C797        C  0.90074104  0.97524959  0.41109785    -0.10800
C798        C  0.86704876  0.98167939  0.38864319     0.08500
C799        C  0.88828462  0.08010180  0.36129805     0.09500
S800        S  0.94545939  0.08008798  0.43328418    -0.25200
H801        H  0.94612431  0.00114744  0.44604956     0.19800
S802        S  0.83973891  0.94369195  0.36554240    -0.30900
H803        H  0.83539585  0.02397332  0.35799893     0.10100
C804        C  0.91073745  0.07476629  0.32820784     0.03300
C805        C  0.91856823  0.10499184  0.30278954    -0.13200
C806        C  0.90592780  0.14092963  0.31034607    -0.08800
C807        C  0.88292077  0.14622176  0.34319402     0.06800
C808        C  0.87341872  0.11537630  0.36783264    -0.13900
S809        S  0.93137773  0.02990436  0.31924955    -0.30800
H810        H  0.93603832  0.10106651  0.27751424     0.11000
S811        S  0.86738356  0.19171771  0.35685702    -0.27900
H812        H  0.85631363  0.11933460  0.39336385     0.08200
H813        H  0.80971209  0.96529539  0.35060763     0.26700
H814        H  0.94991645  0.04040134  0.28438055     0.21500
H815        H  0.90052030  0.21224957  0.34369973     0.26800
H816        H  0.91779393  0.10778722  0.43240318     0.15600
C817        C  0.18160250  0.13677748  0.55517332    -0.11700
C818        C  0.20934713  0.16678972  0.55418414     0.14900
C819        C  0.21629258  0.18680985  0.51907953     0.01800
C820        C  0.19830343  0.17409187  0.48515265    -0.16000
C821        C  0.17288376  0.14214266  0.48564227    -0.10800
C822        C  0.16282059  0.12464089  0.52148591     0.08500
C823        C  0.23617733  0.17002094  0.58751519     0.09500
S824        S  0.24966953  0.22711461  0.51536880    -0.25200
H825        H  0.20597625  0.18799200  0.45789094     0.19800
S826        S  0.12760818  0.08581826  0.52613325    -0.30900
H827        H  0.17619238  0.12119829  0.58205581     0.10100
C828        C  0.22283929  0.17499557  0.62536413     0.03300
C829        C  0.24657696  0.16558821  0.65697154    -0.13200
C830        C  0.28309175  0.15135947  0.65097555    -0.08800
C831        C  0.29792370  0.15056446  0.61320034     0.06800
C832        C  0.27426180  0.15973716  0.58186917    -0.13900
S833        S  0.17482835  0.19094156  0.63313675    -0.30800
H834        H  0.23563263  0.16645854  0.68616386     0.11000
S835        S  0.34530954  0.13437872  0.60299446    -0.27900
H836        H  0.28458971  0.15583743  0.55279241     0.08200
H837        H  0.10565883  0.09575032  0.49325397     0.26700
H838        H  0.17612418  0.18853380  0.67383277     0.21500
H839        H  0.36195428  0.14327605  0.63916413     0.26800
H840        H  0.24787045  0.23689393  0.55450798     0.15600
C841        C  0.27686076  0.95250651  0.01626030    -0.11700
C842        C  0.23825819  0.93871343  0.01617121     0.14900
C843        C  0.21975136  0.93098300  0.98025200     0.01800
C844        C  0.23892645  0.94055956  0.94554300    -0.16000
C845        C  0.27647774  0.95712015  0.94598700    -0.10800
C846        C  0.29627828  0.96106828  0.98180516     0.08500
C847        C  0.21694714  0.93965610  0.05328836     0.09500
S848        S  0.17114628  0.91083147  0.97687824    -0.25200
H849        H  0.22361632  0.93723945  0.91820031     0.19800
S850        S  0.34547584  0.97983311  0.98554058    -0.30900
H851        H  0.29139656  0.95879363  0.04347334     0.10100
C852        C  0.23060733  0.92207721  0.08756997     0.03300
C853        C  0.21645315  0.93250142  0.12358909    -0.13200
C854        C  0.18818428  0.95942944  0.12584989    -0.08800
C855        C  0.17100178  0.97302749  0.09122039     0.06800
C856        C  0.18619892  0.96384870  0.05553704    -0.13900
S857        S  0.26700697  0.88740662  0.08548183    -0.30800
H858        H  0.22919734  0.92154399  0.15005929     0.11000
S859        S  0.13075532  0.00357284  0.09069828    -0.27900
H860        H  0.17512937  0.97717197  0.02941411     0.08200
H861        H  0.35690786  0.96762568  0.94913277     0.26700
H862        H  0.26885133  0.87930922  0.12549823     0.21500
H863        H  0.11717965  0.99274773  0.12770702     0.26800
H864        H  0.17123548  0.89291280  0.01360355     0.15600
C865        C  0.48893699  0.25630200  0.16360496    -0.11700
C866        C  0.49428334  0.28672185  0.18856558     0.14900
C867        C  0.46158399  0.30442496  0.20241138     0.01800
C868        C  0.42473282  0.29331728  0.18855152    -0.16000
C869        C  0.41996981  0.26463726  0.16147528    -0.10800
C870        C  0.45225113  0.24453543  0.15069078     0.08500
C871        C  0.53408764  0.30322209  0.19260605     0.09500
S872        S  0.46524513  0.34253781  0.23595777    -0.25200
H873        H  0.39991415  0.30836652  0.19741174     0.19800
S874        S  0.44876135  0.20454154  0.11932489    -0.30900
H875        H  0.51376343  0.24266262  0.15252877     0.10100
C876        C  0.56515836  0.28090352  0.20394005     0.03300
C877        C  0.60297499  0.29312195  0.19437070    -0.13200
C878        C  0.60997812  0.32710826  0.17383070    -0.08800
C879        C  0.57946219  0.35141386  0.16687312     0.06800
C880        C  0.54182336  0.33914135  0.17610423    -0.13900
S881        S  0.55632572  0.23557971  0.22767082    -0.30800
H882        H  0.62664154  0.27473793  0.19969950     0.11000
S883        S  0.58624355  0.39634235  0.14193800    -0.27900
H884        H  0.51814827  0.35637312  0.16713984     0.08200
H885        H  0.41143411  0.19209919  0.13088762     0.26700
H886        H  0.59491912  0.22481822  0.22844989     0.21500
H887        H  0.62548133  0.40207274  0.15206361     0.26800
H888        H  0.50079349  0.33264698  0.25245342     0.15600
C889        C  0.99076664  0.34927965  0.96605324    -0.11700
C890        C  0.99503101  0.31715053  0.94393287     0.14900
C891        C  0.96150540  0.29882036  0.92806944     0.01800
C892        C  0.92477370  0.30964714  0.93910733    -0.16000
C893        C  0.92078203  0.33910491  0.96492664    -0.10800
C894        C  0.95419839  0.36086339  0.97600534     0.08500
C895        C  0.03311884  0.29918414  0.94573688     0.09500
S896        S  0.96385233  0.25997861  0.89564786    -0.25200
H897        H  0.89937620  0.29320413  0.92979042     0.19800
S898        S  0.95227768  0.40197451  0.00553373    -0.30900
H899        H  0.01611186  0.36391147  0.97812017     0.10100
C900        C  0.06807184  0.31852562  0.93500372     0.03300
C901        C  0.10364878  0.30348983  0.94591235    -0.13200
C902        C  0.10487743  0.26923170  0.96681491    -0.08800
C903        C  0.06991619  0.24829916  0.97410891     0.06800
C904        C  0.03466613  0.26370444  0.96416908    -0.13900
S905        S  0.06738768  0.36263279  0.90816169    -0.30800
H906        H  0.13044473  0.31932873  0.93997634     0.11000
S907        S  0.06829650  0.20239366  0.99761754    -0.27900
H908        H  0.00809306  0.24851380  0.97245544     0.08200
H909        H  0.91370347  0.40967888  0.99645999     0.26700
H910        H  0.10753769  0.36697975  0.90259534     0.21500
H911        H  0.10463934  0.19209556  0.98474455     0.26800
H912        H  0.00178152  0.26874292  0.88316776     0.15600
C913        C  0.13528031  0.49759984  0.34256566    -0.11700
C914        C  0.14748027  0.52449465  0.31443342     0.14900
C915        C  0.15574522  0.51231357  0.27680251     0.01800
C916        C  0.14422891  0.47550196  0.26630753    -0.16000
C917        C  0.12697045  0.45024908  0.29347052    -0.10800
C918        C  0.12590505  0.46050907  0.33265996     0.08500
C919        C  0.14425147  0.56473610  0.32425185     0.09500
S920        S  0.17856577  0.54291529  0.24060374    -0.25200
H921        H  0.14620036  0.46746346  0.23635030     0.19800
S922        S  0.10868626  0.42849766  0.37056864    -0.30900
H923        H  0.13016374  0.50611347  0.37193511     0.10100
C924        C  0.11635269  0.58697580  0.30562843     0.03300
C925        C  0.10681302  0.62093016  0.32198944    -0.13200
C926        C  0.12193295  0.63184848  0.35812318    -0.08800
C927        C  0.15077059  0.61044914  0.37601902     0.06800
C928        C  0.16250617  0.57790298  0.35825686    -0.13900
S929        S  0.08829119  0.57001660  0.26451808    -0.30800
H930        H  0.08477516  0.63751897  0.30833185     0.11000
S931        S  0.17034867  0.62054345  0.42345395    -0.27900
H932        H  0.18332408  0.56067178  0.37308481     0.09400
H933        H  0.11713322  0.39540008  0.35146287     0.26700
H934        H  0.06573868  0.60164287  0.25893870     0.21500
H935        H  0.13505517  0.63005808  0.43953775     0.26800
H936        H  0.19302884  0.57029677  0.26639423     0.15600
C937        C  0.72888358  0.63169388  0.03205322    -0.11700
C938        C  0.76712091  0.64642499  0.03454804     0.14900
C939        C  0.78654884  0.65670668  0.99963806     0.01800
C940        C  0.76884149  0.64864439  0.96367791    -0.16000
C941        C  0.73156586  0.63154124  0.96158363    -0.10800
C942        C  0.71077988  0.62497763  0.99628357     0.08500
C943        C  0.78735772  0.64439768  0.07312402     0.09500
S944        S  0.83438673  0.67896286  0.99900852    -0.25200
H945        H  0.78496951  0.65406517  0.93728685     0.19800
S946        S  0.66176780  0.60545766  0.99690923    -0.30900
H947        H  0.71354769  0.62336149  0.05825649     0.10100
C948        C  0.77216349  0.65939719  0.10709780     0.03300
C949        C  0.78824725  0.65004624  0.14364926    -0.13200
C950        C  0.81997673  0.62682385  0.14701354    -0.08800
C951        C  0.83738844  0.61518822  0.11259231     0.06800
C952        C  0.82032855  0.62300213  0.07654546    -0.13900
S953        S  0.73220272  0.69029052  0.10405394    -0.30800
H954        H  0.77512944  0.65959866  0.16974153     0.11000
S955        S  0.88156726  0.59018614  0.11251735    -0.27900
H956        H  0.83252854  0.61146326  0.05087905     0.08200
H957        H  0.65139236  0.61941480  0.95998182     0.26700
H958        H  0.73195735  0.69924458  0.14350931     0.21500
H959        H  0.89700682  0.60638604  0.14645069     0.26800
H960        H  0.83210447  0.69517911  0.03562325     0.15600
C961        C  0.52415401  0.75410415  0.44572481    -0.11700
C962        C  0.52332558  0.78748854  0.42320399     0.14900
C963        C  0.55879217  0.80271437  0.40809778     0.01800
C964        C  0.59398733  0.78728399  0.41986073    -0.16000
C965        C  0.59465837  0.75577639  0.44514715    -0.10800
C966        C  0.55897226  0.73756785  0.45561674     0.08500
C967        C  0.48648856  0.80843125  0.42192911     0.09500
S968        S  0.56109075  0.84255436  0.37486321    -0.25200
H969        H  0.62100175  0.80140140  0.41119418     0.19800
S970        S  0.55617457  0.69472225  0.48469670    -0.30900
H971        H  0.49758059  0.74178242  0.45766580     0.10100
C972        C  0.45015951  0.79083567  0.41243400     0.03300
C973        C  0.41573087  0.80852778  0.42124163    -0.13200
C974        C  0.41662977  0.84381365  0.43879464    -0.08800
C975        C  0.45291731  0.86308450  0.44409171     0.06800
C976        C  0.48713416  0.84514034  0.43628168    -0.13900
S977        S  0.44742225  0.74517673  0.39045084    -0.30800
H978        H  0.38809988  0.79354400  0.41729404     0.11000
S979        S  0.45737557  0.90941960  0.46433084    -0.27900
H980        H  0.51453617  0.85917988  0.44376901     0.08200
H981        H  0.59300638  0.68283976  0.47517121     0.26700
H982        H  0.40692312  0.74201715  0.38669495     0.21500
H983        H  0.42005573  0.91997176  0.45343234     0.26800
H984        H  0.52338809  0.83665465  0.35992611     0.15600
C985        C  0.97850053  0.80521529  0.67150751    -0.11700
C986        C  0.97058782  0.84300208  0.67759097     0.14900
C987        C  0.93183510  0.85355123  0.67887904     0.01800
C988        C  0.90208028  0.82663912  0.67148398    -0.16000
C989        C  0.91037131  0.78940611  0.66345179    -0.10800
C990        C  0.94887031  0.77827382  0.66493676     0.08500
C991        C  0.00360325  0.87066858  0.67511937     0.09500
S992        S  0.91869310  0.90098762  0.68799089    -0.25200
H993        H  0.87241208  0.83511108  0.67028994     0.19800
S994        S  0.96225597  0.73088833  0.65560204    -0.30900
H995        H  0.00819132  0.79697733  0.66990390     0.10100
C996        C  0.03638539  0.86696238  0.69917223     0.03300
C997        C  0.07230927  0.88163612  0.68635415    -0.13200
C998        C  0.07557065  0.90035778  0.65020598    -0.08800
C999        C  0.04151697  0.91026049  0.63019592     0.06800
C1000       C  0.00592518  0.89458096  0.64233660    -0.13900
S1001       S  0.03303215  0.84002598  0.74403588    -0.30800
H1002       H  0.09816880  0.87471108  0.70239707     0.11000
S1003       S  0.04221227  0.93980747  0.58712125    -0.27900
H1004       H  0.98055619  0.89839337  0.62424102     0.08200
H1005       H  0.92813229  0.71289089  0.66966271     0.26700
H1006       H  0.07088292  0.84894605  0.75716055     0.21500
H1007       H  0.07686937  0.95951590  0.59728049     0.26800
H1008       H  0.95302015  0.91196438  0.70763939     0.15600
C1009       C  0.60729865  0.01894313  0.78578996    -0.11700
C1010       C  0.62456672  0.01281611  0.82223249     0.14900
C1011       C  0.63251306  0.97560162  0.83405301     0.01800
C1012       C  0.62024483  0.94538828  0.81072551    -0.16000
C1013       C  0.60112334  0.95162171  0.77519052    -0.10800
C1014       C  0.59649651  0.98903785  0.76187550     0.08500
C1015       C  0.62806580  0.04520977  0.84879062     0.09500
S1016       S  0.65756945  0.96502973  0.87874114    -0.25200
H1017       H  0.62454962  0.91682247  0.82091926     0.19800
S1018       S  0.57644292  0.00051000  0.71483153    -0.30900
H1019       H  0.60107180  0.04731412  0.77629846     0.10100
C1020       C  0.64750618  0.07949133  0.83776976     0.03300
C1021       C  0.63985176  0.11257176  0.85731172    -0.13200
C1022       C  0.61353740  0.11177572  0.88797880    -0.08800
C1023       C  0.59869295  0.07654259  0.90237176     0.06800
C1024       C  0.60550164  0.04383650  0.88229387    -0.13900
S1025       S  0.68050383  0.08129924  0.79760304    -0.30800
H1026       H  0.65180435  0.13944496  0.84664100     0.11000
S1027       S  0.56810732  0.07205899  0.94431126    -0.27900
H1028       H  0.59089966  0.01756552  0.89137472     0.08200
H1029       H  0.58942992  0.96862733  0.69639583     0.26700
H1030       H  0.68762518  0.12055949  0.79682862     0.21500
H1031       H  0.58132713  0.10606288  0.96100353     0.26800
H1032       H  0.67857983  0.99976860  0.88041929     0.15600
loop_ 
_geom_bond_atom_site_label_1 
_geom_bond_atom_site_label_2 
_geom_bond_distance 
_geom_bond_site_symmetry_2 
_ccdc_geom_bond_type 
C1            C2   1.404       .  A
C1            C6   1.402       .  A
C1         C1013   1.485       .  S
C2            C3   1.411       .  A
C2            H7   1.084       .  S
C3            C4   1.410       .  A
C3          C701   1.486       .  S
C4            C5   1.408       .  A
C4            H8   1.084       .  S
C5            C6   1.401       .  A
C5          C163   1.480       .  S
C6            H9   1.084       .  S
C10          C11   1.424       .  A
C10          C15   1.416       .  A
C10        C1022   1.485       .  S
C11          C12   1.409       .  A
C11          H16   1.083       .  S
C12          C13   1.414       .  A
C12          C96   1.508       .  S
C13          C14   1.412       .  A
C13          H17   1.080       .  S
C14          C15   1.392       .  A
C14         C452   1.503       .  S
C15          H18   1.084       .  S
C19          C20   1.401       .  A
C19          C24   1.401       .  A
C19         C989   1.465       .  S
C20          C21   1.395       .  A
C20          H25   1.085       .  S
C21          C22   1.416       .  A
C21         C259   1.483       .  S
C22          C23   1.415       .  A
C22          H26   1.080       .  S
C23          C24   1.401       .  A
C23         C722   1.475       .  S
C24          H27   1.084       .  S
C28          C29   1.401       .  A
C28          C33   1.407       .  A
C28         C998   1.482       .  S
C29          C30   1.398       .  A
C29          H34   1.084       .  S
C30          C31   1.426       .  A
C30         C182   1.478       .  S
C31          C32   1.408       .  A
C31          H35   1.080       .  S
C32          C33   1.409       .  A
C32         C599   1.511       .  S
C33          H36   1.083       .  S
C37          C38   1.425       .  A
C37          C42   1.405       .  A
C37         C965   1.495       .  S
C38          C39   1.422       .  A
C38          H43   1.083       .  S
C39          C40   1.411       .  A
C39         C251   1.513       .  S
C40          C41   1.416       .  A
C40          H44   1.079       .  S
C41          C42   1.389       .  A
C41         C702   1.489       .  S
C42          H45   1.085       .  S
C46          C47   1.426       .  A
C46          C51   1.404       .  A
C46         C974   1.494       .  S
C47          C48   1.423       .  A
C47          H52   1.083       .  S
C48          C49   1.404       .  A
C48         C601   1.508       .  S
C49          C50   1.412       .  A
C49          H53   1.078       .  S
C50          C51   1.388       .  A
C50         C162   1.480       .  S
C51          H54   1.085       .  S
C55          C56   1.403       .  A
C55          C60   1.415       .  A
C55         C941   1.489       .  S
C56          C57   1.395       .  A
C56          H61   1.085       .  S
C57          C58   1.410       .  A
C57         C101   1.480       .  S
C58          C59   1.409       .  A
C58          H62   1.083       .  S
C59          C60   1.415       .  A
C59         C707   1.491       .  S
C60          H63   1.083       .  S
C64          C65   1.414       .  A
C64          C69   1.404       .  A
C64         C950   1.498       .  S
C65          C66   1.417       .  A
C65          H70   1.083       .  S
C66          C67   1.414       .  A
C66         C245   1.499       .  S
C67          C68   1.409       .  A
C67          H71   1.084       .  S
C68          C69   1.400       .  A
C68         C331   1.484       .  S
C69          H72   1.084       .  S
Zr73         O74   2.439       .  S
Zr73         O75   2.452   1_556  S
Zr73         O76   2.446       .  S
Zr73         O79   2.537       .  S
Zr73         O81   2.402       .  S
Zr73         O82   2.372       .  S
Zr73         O83   2.426       .  S
Zr73         O84   2.393       .  S
O74         H130   0.990       .  S
O74         H138   0.990       .  S
O75          C95   1.287       .  A
O76          C97   1.286       .  A
O77         Zr87   2.383       .  S
O77          C96   1.275       .  A
O78         Zr86   2.469       .  S
O78          C97   1.292       .  A
O79          C96   1.303       .  A
O80         Zr88   2.379   1_554  S
O80          C95   1.275       .  A
O81         Zr86   2.386       .  S
O81         Zr88   2.370       .  S
O82         Zr87   2.392       .  S
O82         Zr88   2.386       .  S
O82         H117   0.966       .  S
O83         Zr86   2.413       .  S
O83        Zr103   2.402       .  S
O83         H120   0.966       .  S
O84         Zr87   2.371       .  S
O84        Zr103   2.378       .  S
Zr85        O110   2.443       .  S
Zr85        O104   2.459       .  S
Zr85        O112   2.521       .  S
Zr85        O100   2.419       .  S
Zr85         O91   2.380       .  S
Zr85         O92   2.426       .  S
Zr85         O93   2.392       .  S
Zr85         O94   2.382       .  S
Zr86        O105   2.435       .  S
Zr86         O98   2.435       .  S
Zr86         O99   2.471       .  S
Zr86         O92   2.411       .  S
Zr86         O93   2.382       .  S
Zr87         O89   2.434       .  S
Zr87        O111   2.437       .  S
Zr87        O113   2.380       .  S
Zr87         O91   2.377       .  S
Zr87         O94   2.398       .  S
Zr88        O114   2.436   1_556  S
Zr88        O115   2.436   1_556  S
Zr88         O90   2.437   1_556  S
Zr88         O91   2.373       .  S
Zr88         O92   2.383       .  S
O89         H126   0.990       .  S
O90         H121   0.990       .  S
O90         H135   0.990       .  S
O92         H118   0.966       .  S
O93        Zr103   2.365       .  S
O94        Zr103   2.392       .  S
O94         H119   0.966       .  S
C95         C384   1.458       .  S
C97         C293   1.487       .  S
O98         H134   0.990       .  S
O99         C101   1.294       .  A
O100        C101   1.282       .  A
O102       Zr103   2.439       .  S
O102        H131   0.990       .  S
Zr103       O106   2.438       .  S
Zr103       O107   2.441       .  S
Zr103       O108   2.410       .  S
O104        C109   1.287       .  A
O105        H122   0.990       .  S
O105        H137   0.990       .  S
O106        H123   0.990       .  S
O107        H127   0.990       .  S
O107        H136   0.990       .  S
O108        C109   1.281       .  A
C109        C672   1.485       .  S
O110        H129   0.990       .  S
O110        H133   0.990       .  S
O111        H125   0.986       .  S
O111        H132   0.988       .  S
O112        C116   1.298       .  A
O113        C116   1.275       .  A
O114        H124   0.991   1_554  S
O115        H128   0.990   1_554  S
C116        C647   1.495       .  S
Zr139       O140   2.441       .  S
Zr139       O141   2.436       .  S
Zr139       O142   2.436       .  S
Zr139       O145   2.489       .  S
Zr139       O147   2.394       .  S
Zr139       O148   2.388       .  S
Zr139       O149   2.423       .  S
Zr139       O150   2.394       .  S
O140        H196   0.991       .  S
O140        H204   0.990       .  S
O141        C161   1.284       .  A
O142        C163   1.285       .  A
O143       Zr153   2.377       .  S
O143        C162   1.264       .  A
O144       Zr152   2.444       .  S
O144        C163   1.289       .  A
O145        C162   1.291       .  A
O146       Zr154   2.416       .  S
O146        C161   1.281       .  A
O147       Zr152   2.389       .  S
O147       Zr154   2.371       .  S
O148       Zr153   2.398       .  S
O148       Zr154   2.374       .  S
O148        H183   0.966       .  S
O149       Zr152   2.414       .  S
O149       Zr169   2.394       .  S
O149        H186   0.963       .  S
O150       Zr153   2.387       .  S
O150       Zr169   2.386       .  S
Zr151       O176   2.438       .  S
Zr151       O170   2.469   1_565  S
Zr151       O178   2.499       .  S
Zr151       O166   2.434       .  S
Zr151       O157   2.407       .  S
Zr151       O158   2.425       .  S
Zr151       O159   2.375       .  S
Zr151       O160   2.389       .  S
Zr152       O171   2.435       .  S
Zr152       O164   2.435       .  S
Zr152       O165   2.465       .  S
Zr152       O158   2.402       .  S
Zr152       O159   2.369       .  S
Zr153       O155   2.438       .  S
Zr153       O177   2.443       .  S
Zr153       O179   2.362       .  S
Zr153       O157   2.383       .  S
Zr153       O160   2.402       .  S
Zr154       O180   2.436       .  S
Zr154       O181   2.434       .  S
Zr154       O156   2.436       .  S
Zr154       O157   2.387       .  S
Zr154       O158   2.389       .  S
O155        H192   0.990       .  S
O156        H187   0.990       .  S
O156        H201   0.990       .  S
O158        H184   0.965       .  S
O159       Zr169   2.364       .  S
O160       Zr169   2.386       .  S
O160        H185   0.966       .  S
C161        C656   1.479       .  S
O164        H200   0.990       .  S
O165        C167   1.291       .  A
O166        C167   1.286       .  A
C167        C393   1.477       .  S
O168       Zr169   2.440       .  S
O168        H197   0.990       .  S
Zr169       O172   2.438   1_565  S
Zr169       O173   2.443   1_565  S
Zr169       O174   2.413   1_565  S
O170        C175   1.291       .  A
O171        H188   0.990       .  S
O171        H203   0.990       .  S
O172        H189   0.990       .  S
O173        H193   0.990       .  S
O173        H202   0.990       .  S
O174        C175   1.279       .  A
C175        C486   1.467       .  S
O176        H195   0.990       .  S
O176        H199   0.990       .  S
O177        H191   0.989       .  S
O177        H198   0.990       .  S
O178        C182   1.292       .  A
O179        C182   1.264       .  A
O180        H190   0.990       .  S
O181        H194   0.990       .  S
C205        C206   1.413       .  A
C205        C210   1.416       .  A
C205        C926   1.481       .  S
C206        C207   1.393       .  A
C206        H211   1.084       .  S
C207        C208   1.418       .  A
C207        C246   1.503   1_455  S
C208        C209   1.412       .  A
C208        H212   1.081       .  S
C209        C210   1.405       .  A
C209        C600   1.492       .  S
C210        H213   1.083       .  S
C214        C215   1.407       .  A
C214        C219   1.411       .  A
C214        C917   1.478       .  S
C215        C216   1.393       .  A
C215        H220   1.085       .  S
C216        C217   1.410       .  A
C216        C330   1.483   1_455  S
C217        C218   1.403       .  A
C217        H221   1.079       .  S
C218        C219   1.410       .  A
C218        C517   1.486       .  S
C219        H222   1.083       .  S
Zr223       O224   2.440       .  S
Zr223       O225   2.458       .  S
Zr223       O226   2.417       .  S
Zr223       O229   2.545       .  S
Zr223       O231   2.411       .  S
Zr223       O232   2.375       .  S
Zr223       O233   2.430       .  S
Zr223       O234   2.363       .  S
O224        H280   0.990       .  S
O224        H288   0.991       .  S
O225        C245   1.289       .  A
O226        C247   1.281       .  A
O227       Zr237   2.378       .  S
O227        C246   1.275       .  A
O228       Zr236   2.472       .  S
O228        C247   1.294       .  A
O229        C246   1.306       .  A
O230       Zr238   2.453       .  S
O230        C245   1.287       .  A
O231       Zr236   2.407       .  S
O231       Zr238   2.366       .  S
O232       Zr237   2.386       .  S
O232       Zr238   2.383       .  S
O232        H267   0.965       .  S
O233       Zr236   2.427       .  S
O233       Zr253   2.374       .  S
O233        H270   0.964       .  S
O234       Zr237   2.367       .  S
O234       Zr253   2.370       .  S
Zr235       O260   2.443       .  S
Zr235       O254   2.529       .  S
Zr235       O262   2.537       .  S
Zr235       O250   2.466       .  S
Zr235       O242   2.438       .  S
Zr235       O243   2.385       .  S
Zr235       O244   2.373       .  S
Zr235       O241   2.322       .  S
Zr236       O255   2.435       .  S
Zr236       O248   2.436       .  S
Zr236       O249   2.512       .  S
Zr236       O242   2.406       .  S
Zr236       O243   2.386       .  S
Zr237       O239   2.437       .  S
Zr237       O261   2.447       .  S
Zr237       O263   2.359       .  S
Zr237       O244   2.402       .  S
Zr237       O241   2.278       .  S
Zr238       O264   2.437       .  S
Zr238       O265   2.434       .  S
Zr238       O240   2.444       .  S
Zr238       O242   2.402       .  S
Zr238       O241   2.313       .  S
O239        H276   0.990       .  S
O240        H271   0.991       .  S
O240        H285   0.989       .  S
O242        H268   0.965       .  S
O243       Zr253   2.377       .  S
O244       Zr253   2.392       .  S
O244        H269   0.964       .  S
C247        C665   1.473       .  S
O248        H284   0.990       .  S
O249        C251   1.300       .  A
O250        C251   1.292       .  A
O252       Zr253   2.437       .  S
O252        H281   0.991       .  S
Zr253       O256   2.437       .  S
Zr253       O257   2.439       .  S
Zr253       O258   2.379       .  S
O254        C259   1.301       .  A
O255        H272   0.990       .  S
O255        H287   0.990       .  S
O256        H273   0.990       .  S
O257        H277   0.990       .  S
O257        H286   0.990       .  S
O258        C259   1.268       .  A
O260        H279   0.991       .  S
O260        H283   0.990       .  S
O261        H275   0.988       .  S
O261        H282   0.991       .  S
O262        C266   1.300       .  A
O263        C266   1.265       .  A
O264        H274   0.991       .  S
O265        H278   0.990       .  S
C266        C561   1.496       .  S
C289        C290   1.401   1_556  A
C289        C294   1.409       .  A
C289        C893   1.488       .  S
C290        C291   1.397       .  A
C290        H295   1.085       .  S
C291        C292   1.409       .  A
C291        C343   1.479       .  S
C292        C293   1.415   1_554  A
C292        H296   1.081       .  S
C293        C294   1.412       .  A
C294        H297   1.083       .  S
C298        C299   1.411       .  A
C298        C303   1.404   1_556  A
C298        C902   1.484       .  S
C299        C300   1.410       .  A
C299        H304   1.083       .  S
C300        C301   1.400   1_556  A
C300        C433   1.471       .  S
C301        C302   1.400       .  A
C301        H305   1.084       .  S
C302        C303   1.397       .  A
C302        C521   1.468       .  S
C303        H306   1.085       .  S
Zr307       O308   2.440       .  S
Zr307       O309   2.434       .  S
Zr307       O310   2.446       .  S
Zr307       O313   2.489       .  S
Zr307       O315   2.394       .  S
Zr307       O316   2.389       .  S
Zr307       O317   2.421       .  S
Zr307       O318   2.395       .  S
O308        H364   0.990       .  S
O308        H372   0.990       .  S
O309        C329   1.283       .  A
O310        C331   1.286       .  A
O311       Zr321   2.387       .  S
O311        C330   1.269       .  A
O312       Zr320   2.447       .  S
O312        C331   1.289       .  A
O313        C330   1.292       .  A
O314       Zr322   2.417       .  S
O314        C329   1.281       .  A
O315       Zr320   2.394       .  S
O315       Zr322   2.371       .  S
O316       Zr321   2.403       .  S
O316       Zr322   2.378       .  S
O316        H351   0.967       .  S
O317       Zr320   2.412       .  S
O317       Zr337   2.398       .  S
O317        H354   0.964       .  S
O318       Zr321   2.388       .  S
O318       Zr337   2.384       .  S
Zr319       O344   2.439       .  S
Zr319       O338   2.469       .  S
Zr319       O346   2.472       .  S
Zr319       O334   2.396       .  S
Zr319       O325   2.409       .  S
Zr319       O326   2.426       .  S
Zr319       O327   2.379       .  S
Zr319       O328   2.385       .  S
Zr320       O339   2.435       .  S
Zr320       O332   2.436       .  S
Zr320       O333   2.465       .  S
Zr320       O326   2.403       .  S
Zr320       O327   2.379       .  S
Zr321       O323   2.434       .  S
Zr321       O345   2.441       .  S
Zr321       O347   2.392       .  S
Zr321       O325   2.380       .  S
Zr321       O328   2.400       .  S
Zr322       O348   2.437       .  S
Zr322       O349   2.436       .  S
Zr322       O324   2.437       .  S
Zr322       O325   2.385       .  S
Zr322       O326   2.397       .  S
O323        H360   0.990       .  S
O324        H355   0.990       .  S
O324        H369   0.989       .  S
O326        H352   0.965       .  S
O327       Zr337   2.368       .  S
O328       Zr337   2.384       .  S
O328        H353   0.966       .  S
C329        C663   1.472       .  S
O332        H368   0.990       .  S
O333        C335   1.291       .  A
O334        C335   1.278       .  A
C335        C386   1.460       .  S
O336       Zr337   2.441       .  S
O336        H365   0.990       .  S
Zr337       O340   2.439       .  S
Zr337       O341   2.443       .  S
Zr337       O342   2.412       .  S
O338        C343   1.290       .  A
O339        H356   0.990       .  S
O339        H371   0.990       .  S
O340        H357   0.990       .  S
O341        H361   0.990       .  S
O341        H370   0.990       .  S
O342        C343   1.281       .  A
O344        H363   0.990       .  S
O344        H367   0.991       .  S
O345        H359   0.989       .  S
O345        H366   0.990       .  S
O346        C350   1.283       .  A
O347        C350   1.267       .  A
O348        H358   0.990       .  S
O349        H362   0.990       .  S
C350        C572   1.466       .  S
C373        C374   1.401       .  A
C373        C378   1.399       .  A
C373        C869   1.474       .  S
C374        C375   1.396       .  A
C374        H379   1.085       .  S
C375        C376   1.409       .  A
C375        C431   1.472       .  S
C376        C377   1.415       .  A
C376        H380   1.083       .  S
C377        C378   1.404       .  A
C377        C529   1.480       .  S
C378        H381   1.084       .  S
C382        C383   1.398       .  A
C382        C387   1.399       .  A
C382        C878   1.468       .  S
C383        C384   1.396       .  A
C383        H388   1.085       .  S
C384        C385   1.400       .  A
C385        C386   1.404       .  A
C385        H389   1.082       .  S
C386        C387   1.403       .  A
C387        H390   1.084       .  S
C391        C392   1.409       .  A
C391        C396   1.401   1_565  A
C391        C845   1.481       .  S
C392        C393   1.411       .  A
C392        H397   1.083       .  S
C393        C394   1.406   1_565  A
C394        C395   1.406       .  A
C394        H398   1.084       .  S
C395        C396   1.393       .  A
C395        C437   1.472       .  S
C396        H399   1.085       .  S
C400        C401   1.405   1_565  A
C400        C405   1.413       .  A
C400        C854   1.484       .  S
C401        C402   1.393       .  A
C401        H406   1.084       .  S
C402        C403   1.417       .  A
C402        C536   1.487       .  S
C403        C404   1.408   1_545  A
C403        H407   1.078       .  S
C404        C405   1.411       .  A
C404        C613   1.501       .  S
C405        H408   1.083       .  S
Zr409       O410   2.440       .  S
Zr409       O411   2.475   1_556  S
Zr409       O412   2.439       .  S
Zr409       O415   2.519       .  S
Zr409       O417   2.396       .  S
Zr409       O418   2.376       .  S
Zr409       O419   2.427       .  S
Zr409       O420   2.404       .  S
O410        H466   0.991       .  S
O410        H474   0.990       .  S
O411        C431   1.291       .  A
O412        C433   1.284       .  A
O413       Zr423   2.371       .  S
O413        C432   1.273       .  A
O414       Zr422   2.448       .  S
O414        C433   1.287       .  A
O415        C432   1.299       .  A
O416       Zr424   2.400   1_554  S
O416        C431   1.277       .  A
O417       Zr422   2.388       .  S
O417       Zr424   2.366       .  S
O418       Zr423   2.402       .  S
O418       Zr424   2.392       .  S
O418        H453   0.966       .  S
O419       Zr422   2.412       .  S
O419       Zr439   2.394       .  S
O419        H456   0.965       .  S
O420       Zr423   2.373       .  S
O420       Zr439   2.390       .  S
Zr421       O446   2.440       .  S
Zr421       O440   2.464       .  S
Zr421       O448   2.543       .  S
Zr421       O436   2.421       .  S
Zr421       O427   2.368       .  S
Zr421       O428   2.428       .  S
Zr421       O429   2.394       .  S
Zr421       O430   2.385       .  S
Zr422       O441   2.437       .  S
Zr422       O434   2.436       .  S
Zr422       O435   2.446       .  S
Zr422       O428   2.406       .  S
Zr422       O429   2.380       .  S
Zr423       O425   2.436       .  S
Zr423       O447   2.416       .  S
Zr423       O449   2.382       .  S
Zr423       O427   2.367       .  S
Zr423       O430   2.380       .  S
Zr424       O450   2.438   1_556  S
Zr424       O451   2.436       .  S
Zr424       O426   2.437   1_556  S
Zr424       O427   2.368       .  S
Zr424       O428   2.394       .  S
O425        H462   0.990       .  S
O426        H457   0.990       .  S
O426        H471   0.990       .  S
O428        H454   0.965       .  S
O429       Zr439   2.365       .  S
O430       Zr439   2.391       .  S
O430        H455   0.965       .  S
C432        C645   1.495       .  S
O434        H470   0.990       .  S
O435        C437   1.289       .  A
O436        C437   1.282       .  A
O438       Zr439   2.439       .  S
O438        H467   0.991       .  S
Zr439       O442   2.440       .  S
Zr439       O443   2.440       .  S
Zr439       O444   2.400       .  S
O440        C445   1.289       .  A
O441        H458   0.990       .  S
O441        H473   0.990       .  S
O442        H459   0.990       .  S
O443        H463   0.990       .  S
O443        H472   0.990       .  S
O444        C445   1.279       .  A
C445        C488   1.484       .  S
O446        H465   0.990       .  S
O446        H469   0.990       .  S
O447        H461   0.988       .  S
O447        H468   0.989       .  S
O448        C452   1.304       .  A
O449        C452   1.275       .  A
O450        H460   0.990       .  S
O451        H464   0.990       .  S
C475        C476   1.411       .  A
C475        C480   1.407       .  A
C475        C821   1.476       .  S
C476        C477   1.398       .  A
C476        H481   1.084       .  S
C477        C478   1.408       .  A
C477        C605   1.490       .  S
C478        C479   1.410       .  A
C478        H482   1.079       .  S
C479        C480   1.394       .  A
C479        C516   1.473       .  S
C480        H483   1.084       .  S
C484        C485   1.394       .  A
C484        C489   1.393       .  A
C484        C830   1.467       .  S
C485        C486   1.393       .  A
C485        H490   1.085       .  S
C486        C487   1.414       .  A
C487        C488   1.415       .  A
C487        H491   1.083       .  S
C488        C489   1.409       .  A
C489        H492   1.084       .  S
Zr493       O494   2.439       .  S
Zr493       O495   2.475       .  S
Zr493       O496   2.452       .  S
Zr493       O499   2.487       .  S
Zr493       O501   2.386       .  S
Zr493       O502   2.382       .  S
Zr493       O503   2.424       .  S
Zr493       O504   2.413       .  S
O494        H550   0.990       .  S
O494        H558   0.991       .  S
O495        C515   1.292       .  A
O496        C517   1.288       .  A
O497       Zr507   2.376       .  S
O497        C516   1.266       .  A
O498       Zr506   2.467       .  S
O498        C517   1.291       .  A
O499        C516   1.288       .  A
O500       Zr508   2.396       .  S
O500        C515   1.274       .  A
O501       Zr506   2.389       .  S
O501       Zr508   2.378       .  S
O502       Zr507   2.397       .  S
O502       Zr508   2.383       .  S
O502        H537   0.967       .  S
O503       Zr506   2.404       .  S
O503       Zr523   2.396       .  S
O503        H540   0.965       .  S
O504       Zr507   2.379       .  S
O504       Zr523   2.393       .  S
Zr505       O530   2.441       .  S
Zr505       O524   2.439       .  S
Zr505       O532   2.502       .  S
Zr505       O520   2.417       .  S
Zr505       O511   2.386       .  S
Zr505       O512   2.419       .  S
Zr505       O513   2.390       .  S
Zr505       O514   2.378       .  S
Zr506       O525   2.437       .  S
Zr506       O518   2.435       .  S
Zr506       O519   2.452       .  S
Zr506       O512   2.413       .  S
Zr506       O513   2.385       .  S
Zr507       O509   2.442       .  S
Zr507       O531   2.445       .  S
Zr507       O533   2.372       .  S
Zr507       O511   2.390       .  S
Zr507       O514   2.404       .  S
Zr508       O534   2.437       .  S
Zr508       O535   2.435       .  S
Zr508       O510   2.438       .  S
Zr508       O511   2.388       .  S
Zr508       O512   2.376       .  S
O509        H546   0.988       .  S
O510        H541   0.990       .  S
O510        H555   0.990       .  S
O512        H538   0.965       .  S
O513       Zr523   2.363       .  S
O514       Zr523   2.383       .  S
O514        H539   0.966       .  S
C515        C570   1.470   1_455  S
O518        H554   0.990       .  S
O519        C521   1.290       .  A
O520        C521   1.283       .  A
O522       Zr523   2.440       .  S
O522        H551   0.990       .  S
Zr523       O526   2.438       .  S
Zr523       O527   2.442       .  S
Zr523       O528   2.429       .  S
O524        C529   1.285       .  A
O525        H542   0.990       .  S
O525        H557   0.990       .  S
O526        H543   0.990       .  S
O527        H547   0.990       .  S
O527        H556   0.990       .  S
O528        C529   1.284       .  A
O530        H549   0.990       .  S
O530        H553   0.991       .  S
O531        H545   0.990       .  S
O531        H552   0.987       .  S
O532        C536   1.294       .  A
O533        C536   1.266       .  A
O534        H544   0.990       .  S
O535        H548   0.990       .  S
C559        C560   1.411       .  A
C559        C564   1.420       .  A
C559        C797   1.480       .  S
C560        C561   1.395       .  A
C560        H565   1.083       .  S
C561        C562   1.420       .  A
C562        C563   1.416       .  A
C562        H566   1.079       .  S
C563        C564   1.400       .  A
C563        C620   1.516   1_655  S
C564        H567   1.084       .  S
C568        C569   1.401       .  A
C568        C573   1.403       .  A
C568        C806   1.474       .  S
C569        C570   1.392       .  A
C569        H574   1.085       .  S
C570        C571   1.406       .  A
C571        C572   1.409       .  A
C571        H575   1.081       .  S
C572        C573   1.404       .  A
C573        H576   1.084       .  S
Zr577       O578   2.446       .  S
Zr577       O579   2.537       .  S
Zr577       O580   2.467       .  S
Zr577       O583   2.530       .  S
Zr577       O585   2.386       .  S
Zr577       O586   2.384       .  S
Zr577       O587   2.433       .  S
Zr577       O588   2.341       .  S
O578        H634   0.991       .  S
O578        H642   0.990       .  S
O579        C599   1.294       .  A
O580        C601   1.291       .  A
O581       Zr591   2.375       .  S
O581        C600   1.272       .  A
O582       Zr590   2.525       .  S
O582        C601   1.303       .  A
O583        C600   1.302       .  A
O584       Zr592   2.379       .  S
O584        C599   1.263       .  A
O585       Zr590   2.406       .  S
O585       Zr592   2.385       .  S
O586       Zr591   2.406       .  S
O586       Zr592   2.385       .  S
O586        H621   0.965       .  S
O587       Zr590   2.416       .  S
O587       Zr607   2.382       .  S
O587        H624   0.962       .  S
O588       Zr591   2.293       .  S
O588       Zr607   2.318       .  S
Zr589       O614   2.439       .  S
Zr589       O608   2.490       .  S
Zr589       O616   2.554       .  S
Zr589       O604   2.423   1_565  S
Zr589       O595   2.360       .  S
Zr589       O596   2.430       .  S
Zr589       O597   2.401       .  S
Zr589       O598   2.388       .  S
Zr590       O609   2.435       .  S
Zr590       O602   2.437       .  S
Zr590       O603   2.501   1_565  S
Zr590       O596   2.421       .  S
Zr590       O597   2.407       .  S
Zr591       O593   2.439       .  S
Zr591       O615   2.427       .  S
Zr591       O617   2.427       .  S
Zr591       O595   2.351       .  S
Zr591       O598   2.382       .  S
Zr592       O618   2.435       .  S
Zr592       O619   2.435       .  S
Zr592       O594   2.437       .  S
Zr592       O595   2.355       .  S
Zr592       O596   2.383       .  S
O593        H630   0.990       .  S
O594        H625   0.987       .  S
O594        H639   0.989       .  S
O596        H622   0.964       .  S
O597       Zr607   2.380       .  S
O598       Zr607   2.385       .  S
O598        H623   0.965       .  S
O602        H638   0.990       .  S
O603        C605   1.300       .  A
O604        C605   1.283       .  A
O606       Zr607   2.441       .  S
O606        H635   0.991       .  S
Zr607       O610   2.445       .  S
Zr607       O611   2.438       .  S
Zr607       O612   2.432       .  S
O608        C613   1.294       .  A
O609        H626   0.990       .  S
O609        H641   0.990       .  S
O610        H627   0.990       .  S
O611        H631   0.990       .  S
O611        H640   0.989       .  S
O612        C613   1.282       .  A
O614        H633   0.990       .  S
O614        H637   0.990   1_565  S
O615        H629   0.989       .  S
O615        H636   0.989       .  S
O616        C620   1.307       .  A
O617        C620   1.282       .  A
O618        H628   0.990       .  S
O619        H632   0.990       .  S
C643        C644   1.417       .  A
C643        C648   1.414       .  A
C643        C773   1.474       .  S
C644        C645   1.405       .  A
C644        H649   1.083       .  S
C645        C646   1.409       .  A
C646        C647   1.408       .  A
C646        H650   1.077       .  S
C647        C648   1.391       .  A
C648        H651   1.084       .  S
C652        C653   1.399       .  A
C652        C657   1.400       .  A
C652        C782   1.476       .  S
C653        C654   1.397       .  A
C653        H658   1.085       .  S
C654        C655   1.407       .  A
C654        C703   1.475       .  S
C655        C656   1.410       .  A
C655        H659   1.084       .  S
C656        C657   1.406       .  A
C657        H660   1.084       .  S
C661        C662   1.398       .  A
C661        C666   1.403       .  A
C661        C758   1.471       .  S
C662        C663   1.399       .  A
C662        H667   1.084       .  S
C663        C664   1.407       .  A
C664        C665   1.408       .  A
C664        H668   1.084       .  S
C665        C666   1.398       .  A
C666        H669   1.084       .  S
C670        C671   1.391       .  A
C670        C675   1.395       .  A
C670        C749   1.465       .  S
C671        C672   1.405       .  A
C671        H676   1.085       .  S
C672        C673   1.418       .  A
C673        C674   1.417       .  A
C673        H677   1.083       .  S
C674        C675   1.395       .  A
C674        C715   1.473       .  S
C675        H678   1.085       .  S
Zr679       O680   2.441       .  S
Zr679       O681   2.451       .  S
Zr679       O682   2.425       .  S
Zr679       O685   2.497       .  S
Zr679       O687   2.399       .  S
Zr679       O688   2.377       .  S
Zr679       O689   2.430       .  S
Zr679       O690   2.390       .  S
O680        H736   0.990       .  S
O680        H744   0.991       .  S
O681        C701   1.288       .  A
O682        C703   1.282       .  A
O683       Zr693   2.382       .  S
O683        C702   1.266       .  A
O684       Zr692   2.445       .  S
O684        C703   1.289       .  A
O685        C702   1.293       .  A
O686       Zr694   2.419       .  S
O686        C701   1.282       .  A
O687       Zr692   2.396       .  S
O687       Zr694   2.367       .  S
O688       Zr693   2.397       .  S
O688       Zr694   2.385       .  S
O688        H723   0.966       .  S
O689       Zr692   2.417       .  S
O689       Zr709   2.393       .  S
O689        H726   0.963       .  S
O690       Zr693   2.382       .  S
O690       Zr709   2.390       .  S
Zr691       O716   2.438       .  S
Zr691       O710   2.472       .  S
Zr691       O718   2.506       .  S
Zr691       O706   2.440       .  S
Zr691       O697   2.406       .  S
Zr691       O698   2.429       .  S
Zr691       O699   2.381       .  S
Zr691       O700   2.395       .  S
Zr692       O711   2.437       .  S
Zr692       O704   2.435       .  S
Zr692       O705   2.485       .  S
Zr692       O698   2.399       .  S
Zr692       O699   2.377       .  S
Zr693       O695   2.436       .  S
Zr693       O717   2.442       .  S
Zr693       O719   2.373       .  S
Zr693       O697   2.382       .  S
Zr693       O700   2.410       .  S
Zr694       O720   2.436       .  S
Zr694       O721   2.435       .  S
Zr694       O696   2.436       .  S
Zr694       O697   2.376       .  S
Zr694       O698   2.400       .  S
O695        H732   0.990       .  S
O696        H727   0.990       .  S
O696        H741   0.990       .  S
O698        H724   0.965       .  S
O699       Zr709   2.368       .  S
O700       Zr709   2.391       .  S
O700        H725   0.965       .  S
O704        H740   0.990       .  S
O705        C707   1.295       .  A
O706        C707   1.286       .  A
O708       Zr709   2.442       .  S
O708        H737   0.990       .  S
Zr709       O712   2.439       .  S
Zr709       O713   2.443       .  S
Zr709       O714   2.413       .  S
O710        C715   1.291       .  A
O711        H728   0.991       .  S
O711        H743   0.990       .  S
O712        H729   0.990       .  S
O713        H733   0.990       .  S
O713        H742   0.990       .  S
O714        C715   1.279       .  A
O716        H735   0.990       .  S
O716        H739   0.990       .  S
O717        H731   0.988       .  S
O717        H738   0.990       .  S
O718        C722   1.288       .  A
O719        C722   1.262       .  A
O720        H730   0.990       .  S
O721        H734   0.990       .  S
C745        C746   1.403       .  A
C745        C750   1.389       .  A
C745        H755   1.084       .  S
C746        C747   1.414       .  A
C746        C751   1.475       .  S
C747        C748   1.399       .  A
C747        S752   1.804       .  S
C748        C749   1.402       .  A
C748        H753   1.084       .  S
C749        C750   1.408       .  A
C750        S754   1.805       .  S
C751        C756   1.410       .  A
C751        C760   1.403       .  A
S752        H768   1.406       .  S
S754        H765   1.406       .  S
C756        C757   1.400       .  A
C756        S761   1.806       .  S
C757        C758   1.403       .  A
C757        H762   1.083       .  S
C758        C759   1.411       .  A
C759        C760   1.392       .  A
C759        S763   1.805       .  S
C760        H764   1.084       .  S
S761        H766   1.407       .  S
S763        H767   1.407       .  S
C769        C770   1.400       .  A
C769        C774   1.392       .  A
C769        H779   1.084       .  S
C770        C771   1.412       .  A
C770        C775   1.475       .  S
C771        C772   1.402       .  A
C771        S776   1.803       .  S
C772        C773   1.403       .  A
C772        H777   1.084       .  S
C773        C774   1.413       .  A
C774        S778   1.805       .  S
C775        C780   1.411       .  A
C775        C784   1.402       .  A
S776        H792   1.406       .  S
S778        H789   1.406       .  S
C780        C781   1.397       .  A
C780        S785   1.809       .  S
C781        C782   1.403       .  A
C781        H786   1.083       .  S
C782        C783   1.413       .  A
C783        C784   1.399       .  A
C783        S787   1.803       .  S
C784        H788   1.084       .  S
S785        H790   1.407       .  S
S787        H791   1.407       .  S
C793        C794   1.400       .  A
C793        C798   1.401   1_545  A
C793        H803   1.083       .  S
C794        C795   1.409       .  A
C794        C799   1.472       .  S
C795        C796   1.394       .  A
C795        S800   1.802       .  S
C796        C797   1.403   1_545  A
C796        H801   1.084       .  S
C797        C798   1.418       .  A
C798        S802   1.809       .  S
C799        C804   1.411       .  A
C799        C808   1.401       .  A
S800        H816   1.405       .  S
S802        H813   1.407       .  S
C804        C805   1.391       .  A
C804        S809   1.812       .  S
C805        C806   1.401       .  A
C805        H810   1.083       .  S
C806        C807   1.415       .  A
C807        C808   1.402       .  A
C807        S811   1.803       .  S
C808        H812   1.084       .  S
S809        H814   1.406       .  S
S811        H815   1.406       .  S
C817        C818   1.403       .  A
C817        C822   1.394       .  A
C817        H827   1.084       .  S
C818        C819   1.409       .  A
C818        C823   1.474       .  S
C819        C820   1.395       .  A
C819        S824   1.803       .  S
C820        C821   1.405       .  A
C820        H825   1.084       .  S
C821        C822   1.413       .  A
C822        S826   1.806       .  S
C823        C828   1.409       .  A
C823        C832   1.402       .  A
S824        H840   1.406       .  S
S826        H837   1.406       .  S
C828        C829   1.402       .  A
C828        S833   1.806       .  S
C829        C830   1.403       .  A
C829        H834   1.083       .  S
C830        C831   1.409       .  A
C831        C832   1.391       .  A
C831        S835   1.805       .  S
C832        H836   1.084       .  S
S833        H838   1.406       .  S
S835        H839   1.406       .  S
C841        C842   1.403       .  A
C841        C846   1.395   1_554  A
C841        H851   1.084       .  S
C842        C843   1.416   1_554  A
C842        C847   1.489       .  S
C843        C844   1.405       .  A
C843        S848   1.803       .  S
C844        C845   1.403       .  A
C844        H849   1.084       .  S
C845        C846   1.414       .  A
C846        S850   1.806       .  S
C847        C852   1.413       .  A
C847        C856   1.403       .  A
S848        H864   1.406   1_556  S
S850        H861   1.407       .  S
C852        C853   1.406       .  A
C852        S857   1.806       .  S
C853        C854   1.404       .  A
C853        H858   1.083       .  S
C854        C855   1.415       .  A
C855        C856   1.397       .  A
C855        S859   1.805   1_565  S
C856        H860   1.084       .  S
S857        H862   1.407       .  S
S859        H863   1.407   1_545  S
C865        C866   1.403       .  A
C865        C870   1.391       .  A
C865        H875   1.084       .  S
C866        C867   1.414       .  A
C866        C871   1.480       .  S
C867        C868   1.401       .  A
C867        S872   1.802       .  S
C868        C869   1.402       .  A
C868        H873   1.084       .  S
C869        C870   1.412       .  A
C870        S874   1.806       .  S
C871        C876   1.412       .  A
C871        C880   1.403       .  A
S872        H888   1.406       .  S
S874        H885   1.407       .  S
C876        C877   1.402       .  A
C876        S881   1.807       .  S
C877        C878   1.400       .  A
C877        H882   1.083       .  S
C878        C879   1.410       .  A
C879        C880   1.394       .  A
C879        S883   1.805       .  S
C880        H884   1.084       .  S
S881        H886   1.407       .  S
S883        H887   1.406       .  S
C889        C890   1.403       .  A
C889        C894   1.399       .  A
C889        H899   1.084   1_655  S
C890        C891   1.416       .  A
C890        C895   1.492   1_655  S
C891        C892   1.405       .  A
C891        S896   1.803       .  S
C892        C893   1.404       .  A
C892        H897   1.084       .  S
C893        C894   1.416       .  A
C894        S898   1.806   1_556  S
C895        C900   1.414       .  A
C895        C904   1.403       .  A
S896        H912   1.407   1_655  S
S898        H909   1.406   1_554  S
C900        C901   1.409       .  A
C900        S905   1.805       .  S
C901        C902   1.404       .  A
C901        H906   1.083       .  S
C902        C903   1.414       .  A
C903        C904   1.397       .  A
C903        S907   1.805       .  S
C904        H908   1.084       .  S
S905        H910   1.407       .  S
S907        H911   1.407       .  S
C913        C914   1.403       .  A
C913        C918   1.393       .  A
C913        H923   1.084       .  S
C914        C915   1.416       .  A
C914        C919   1.488       .  S
C915        C916   1.405       .  A
C915        S920   1.804       .  S
C916        C917   1.404       .  A
C916        H921   1.083       .  S
C917        C918   1.411       .  A
C918        S922   1.804       .  S
C919        C924   1.416       .  A
C919        C928   1.407       .  A
S920        H936   1.406       .  S
S922        H933   1.406       .  S
C924        C925   1.399       .  A
C924        S929   1.810       .  S
C925        C926   1.404       .  A
C925        H930   1.083       .  S
C926        C927   1.411       .  A
C927        C928   1.401       .  A
C927        S931   1.803       .  S
C928        H932   1.084       .  S
S929        H934   1.407       .  S
S931        H935   1.407       .  S
C937        C938   1.404       .  A
C937        C942   1.399   1_554  A
C937        H947   1.083       .  S
C938        C939   1.420   1_554  A
C938        C943   1.500       .  S
C939        C940   1.408       .  A
C939        S944   1.803       .  S
C940        C941   1.404       .  A
C940        H945   1.084       .  S
C941        C942   1.415       .  A
C942        S946   1.805       .  S
C943        C948   1.417       .  A
C943        C952   1.403       .  A
S944        H960   1.406   1_556  S
S946        H957   1.407       .  S
C948        C949   1.413       .  A
C948        S953   1.806       .  S
C949        C950   1.406       .  A
C949        H954   1.082       .  S
C950        C951   1.418       .  A
C951        C952   1.399       .  A
C951        S955   1.804       .  S
C952        H956   1.084       .  S
S953        H958   1.407       .  S
S955        H959   1.407       .  S
C961        C962   1.406       .  A
C961        C966   1.401       .  A
C961        H971   1.083       .  S
C962        C963   1.420       .  A
C962        C967   1.506       .  S
C963        C964   1.411       .  A
C963        S968   1.802       .  S
C964        C965   1.406       .  A
C964        H969   1.084       .  S
C965        C966   1.416       .  A
C966        S970   1.805       .  S
C967        C972   1.418       .  A
C967        C976   1.406       .  A
S968        H984   1.407       .  S
S970        H981   1.407       .  S
C972        C973   1.413       .  A
C972        S977   1.806       .  S
C973        C974   1.405       .  A
C973        H978   1.083       .  S
C974        C975   1.416       .  A
C975        C976   1.403       .  A
C975        S979   1.804       .  S
C976        H980   1.083       .  S
S977        H982   1.407       .  S
S979        H983   1.407       .  S
C985        C986   1.405       .  A
C985        C990   1.392       .  A
C985        H995   1.084   1_655  S
C986        C987   1.411       .  A
C986        C991   1.476   1_655  S
C987        C988   1.399       .  A
C987        S992   1.803       .  S
C988        C989   1.402       .  A
C988        H993   1.084       .  S
C989        C990   1.408       .  A
C990        S994   1.805       .  S
C991        C996   1.408       .  A
C991       C1000   1.401       .  A
S992       H1008   1.406       .  S
S994       H1005   1.405       .  S
C996        C997   1.400       .  A
C996       S1001   1.805       .  S
C997        C998   1.405       .  A
C997       H1002   1.082       .  S
C998        C999   1.414       .  A
C999       C1000   1.395       .  A
C999       S1003   1.801       .  S
C1000      H1004   1.084   1_455  S
S1001      H1006   1.407       .  S
S1003      H1007   1.407       .  S
C1009      C1010   1.404       .  A
C1009      C1014   1.396   1_545  A
C1009      H1019   1.084       .  S
C1010      C1011   1.414   1_545  A
C1010      C1015   1.489       .  S
C1011      C1012   1.405       .  A
C1011      S1016   1.802       .  S
C1012      C1013   1.405       .  A
C1012      H1017   1.084       .  S
C1013      C1014   1.413       .  A
C1014      S1018   1.805   1_565  S
C1015      C1020   1.412       .  A
C1015      C1024   1.403       .  A
S1016      H1032   1.407       .  S
S1018      H1029   1.407   1_545  S
C1020      C1021   1.407       .  A
C1020      S1025   1.806       .  S
C1021      C1022   1.404       .  A
C1021      H1026   1.083       .  S
C1022      C1023   1.414       .  A
C1023      C1024   1.398       .  A
C1023      S1027   1.805       .  S
C1024      H1028   1.084       .  S
S1025      H1030   1.406       .  S
S1027      H1031   1.407       .  S
