geometry optimzed in LAMMPS
_audit_creation_date              2020-11-30 
_audit_creation_method            'lammps2cif' 
_symmetry_space_group_name_H-M    'P1' 
_symmetry_Int_Tables_number       1 
_symmetry_cell_setting            triclinic 
loop_ 
_symmetry_equiv_pos_as_xyz 
  x,y,z 
_cell_length_a                    31.85905146 
_cell_length_b                    31.816564339069668 
_cell_length_c                    31.799539020692684 
_cell_angle_alpha                 90.21889627799574 
_cell_angle_beta                  89.57264100081893 
_cell_angle_gamma                 89.88591743589988 
loop_ 
_atom_site_label 
_atom_site_type_symbol 
_atom_site_fract_x 
_atom_site_fract_y 
_atom_site_fract_z 
_atom_site_charge 
C1          C  0.66994421  0.13010662  0.79952036     0.79900
N2          N  0.66712471  0.10101867  0.83060035    -0.78500
C3          C  0.66676890  0.11323429  0.87156653     0.82300
N4          N  0.66957658  0.15474837  0.88165050    -0.78400
C5          C  0.67241103  0.18406854  0.85075454     0.82400
N6          N  0.67276942  0.17141771  0.80994068    -0.80100
C7          C  0.92580744  0.12721666  0.54462588     0.79900
N8          N  0.93720125  0.16832420  0.54283781    -0.78500
C9          C  0.97821158  0.17970847  0.54254659     0.82300
N10         N  0.00824995  0.14944194  0.54417016    -0.78400
C11         C  0.99731865  0.10820552  0.54514800     0.82400
N12         N  0.95608749  0.09704952  0.54571190    -0.80100
C13         C  0.97776434  0.44697841  0.80281160     0.79900
N14         N  0.93682258  0.44838946  0.81477587    -0.78500
C15         C  0.92576475  0.45306824  0.85581548     0.82300
N16         N  0.95636098  0.45590447  0.88522809    -0.78400
C17         C  0.99749083  0.45472240  0.87360887     0.82400
N18         N  0.00824030  0.44982616  0.83237636    -0.80100
C19         C  0.75185980  0.41624085  0.88705850     0.79900
N20         N  0.71945134  0.44385425  0.88991854    -0.78500
C21         C  0.67929569  0.42965387  0.89144735     0.82300
N22         N  0.67139770  0.38773222  0.88907350    -0.78400
C23         C  0.70371984  0.35996030  0.88528404     0.82400
N24         N  0.74384767  0.37444131  0.88438922    -0.80100
C25         C  0.00422341  0.40697071  0.62739256     0.79900
N26         N  0.00391630  0.43806248  0.59826267    -0.78500
C27         C  0.00287734  0.42850624  0.55662087     0.82300
N28         N  0.00194397  0.38770823  0.54384373    -0.78400
C29         C  0.00261300  0.35638227  0.57276081     0.82400
N30         N  0.00361184  0.36625421  0.61433554    -0.80100
C31         C  0.69629445  0.09176952  0.62442789     0.79900
N32         N  0.73755691  0.09009033  0.61412591    -0.78500
C33         C  0.75026317  0.08982438  0.57328805     0.82300
N34         N  0.72095630  0.09150745  0.54229240    -0.78400
C35         C  0.67931188  0.09305646  0.55258912     0.82400
N36         N  0.66725478  0.09404188  0.59359469    -0.80100
C37         C  0.24694616  0.45293183  0.85030849     0.79900
N38         N  0.21903918  0.45316180  0.88295470    -0.78500
C39         C  0.17707282  0.45389929  0.87517852     0.82300
N40         N  0.16301834  0.45403111  0.83500847    -0.78400
C41         C  0.19061012  0.45459791  0.80239998     0.82400
N42         N  0.23237878  0.45386782  0.81027539    -0.80100
C43         C  0.25039781  0.13125565  0.54892972     0.79900
N44         N  0.23996062  0.17265776  0.54957157    -0.78500
C45         C  0.19905463  0.18506069  0.55101657     0.82300
N46         N  0.16831835  0.15524446  0.55200203    -0.78400
C47         C  0.17874127  0.11363226  0.55144880     0.82400
N48         N  0.21965605  0.10191184  0.55030744    -0.80100
C49         C  0.50321766  0.12420093  0.80473617     0.79900
N50         N  0.50112446  0.16591195  0.81348230    -0.78500
C51         C  0.49980614  0.18007764  0.85375887     0.82300
N52         N  0.50089214  0.15196476  0.88582301    -0.78400
C53         C  0.50283471  0.11000298  0.87742845     0.82400
N54         N  0.50351519  0.09611397  0.83686997    -0.80100
C55         C  0.42088537  0.41274775  0.88244427     0.79900
N56         N  0.45214066  0.44104924  0.88859730    -0.78500
C57         C  0.49258548  0.42770197  0.89229568     0.82300
N58         N  0.50178625  0.38593590  0.88963309    -0.78400
C59         C  0.47057783  0.35750254  0.88336387     0.82400
N60         N  0.43049873  0.37131052  0.87926649    -0.80100
C61         C  0.42529962  0.09573310  0.57668156     0.79900
N62         N  0.45557752  0.09912061  0.54651568    -0.78500
C63         C  0.49678371  0.09928824  0.55724142     0.82300
N64         N  0.50780552  0.09691856  0.59837279    -0.78400
C65         C  0.47777112  0.09324539  0.62877498     0.82400
N66         N  0.43669670  0.09275292  0.61765622    -0.80100
C67         C  0.15482346  0.41582117  0.63030862     0.79900
N68         N  0.15451489  0.44463947  0.59905777    -0.78500
C69         C  0.15740746  0.43246468  0.55827842     0.82300
N70         N  0.16152940  0.39092393  0.54843908    -0.78400
C71         C  0.16197652  0.36167751  0.57965836     0.82400
N72         N  0.15900143  0.37440752  0.62048286    -0.80100
C73         C  0.50942365  0.90366248  0.82310007     0.79900
N74         N  0.50680414  0.86351991  0.83699101    -0.78500
C75         C  0.50233199  0.85456590  0.87842115     0.82300
N76         N  0.49985252  0.88675057  0.90672243    -0.78400
C77         C  0.50282061  0.92728870  0.89318385     0.82400
N78         N  0.50762879  0.93556318  0.85151887    -0.80100
C79         C  0.25302928  0.90970014  0.57341741     0.79900
N80         N  0.22358056  0.94004319  0.56753424    -0.78500
C81         C  0.18234964  0.92937684  0.56441551     0.82300
N82         N  0.17063273  0.88827939  0.56696231    -0.78400
C83         C  0.20008538  0.85792763  0.57285484     0.82400
N84         N  0.24095693  0.86897115  0.57651851    -0.80100
C85         C  0.24761393  0.59327617  0.87524627     0.79900
N86         N  0.21544365  0.59762243  0.90307880    -0.78500
C87         C  0.17518281  0.59775931  0.88949181     0.82300
N88         N  0.16688916  0.59417580  0.84767903    -0.78400
C89         C  0.19896210  0.58990032  0.81939642     0.82400
N90         N  0.23906582  0.58943256  0.83366520    -0.80100
C91         C  0.42173943  0.62473007  0.90922644     0.79900
N92         N  0.45269438  0.59550134  0.90632343    -0.78500
C93         C  0.49347460  0.60741325  0.90586294     0.82300
N94         N  0.50350150  0.64883972  0.90734974    -0.78400
C95         C  0.47278359  0.67846666  0.91068771     0.82400
N96         N  0.43189475  0.66620126  0.91161927    -0.80100
C97         C  0.17069478  0.62251453  0.64379939     0.79900
N98         N  0.17191503  0.66451476  0.63682402    -0.78500
C99         C  0.16906219  0.68032980  0.59730288     0.82300
N100        N  0.16561480  0.65323457  0.56428251    -0.78400
C101        C  0.16474361  0.61099034  0.57091999     0.82400
N102        N  0.16763204  0.59564696  0.61069343    -0.80100
C103        C  0.42991863  0.93968502  0.59960390     0.79900
N104        N  0.45783439  0.94380540  0.56728013    -0.78500
C105        C  0.49984296  0.94442149  0.57509117     0.82300
N106        N  0.51400825  0.94061618  0.61519364    -0.78400
C107        C  0.48615806  0.93652865  0.64741018     0.82400
N108        N  0.44455203  0.93572424  0.63929925    -0.80100
C109        C  0.97820474  0.85776117  0.55787033     0.79900
N110        N  0.93770656  0.87074290  0.55472734    -0.78500
C111        C  0.92795130  0.91223114  0.55296269     0.82300
N112        N  0.95918996  0.94115002  0.55421241    -0.78400
C113        C  0.99982856  0.92858146  0.55688683     0.82400
N114        N  0.00930481  0.88699115  0.55899855    -0.80100
C115        C  0.67058054  0.85755055  0.86363727     0.79900
N116        N  0.67011379  0.88813377  0.89393824    -0.78500
C117        C  0.67063684  0.92951895  0.88281590     0.82300
N118        N  0.67264843  0.94019591  0.84158725    -0.78400
C119        C  0.67308163  0.91001642  0.81136774     0.82400
N120        N  0.67188144  0.86891892  0.82248468    -0.80100
C121        C  0.97756582  0.59865579  0.81387201     0.79900
N122        N  0.00616101  0.60214376  0.84507743    -0.78500
C123        C  0.99347012  0.60218956  0.88587423     0.82300
N124        N  0.95196813  0.59989183  0.89563973    -0.78400
C125        C  0.92287556  0.59715808  0.86468471     0.82400
N126        N  0.93608916  0.59644975  0.82387019    -0.80100
C127        C  0.01338767  0.62822000  0.63913561     0.79900
N128        N  0.01120642  0.59875707  0.60814310    -0.78500
C129        C  0.00941701  0.61072774  0.56725499     0.82300
N130        N  0.00840683  0.65215438  0.55733498    -0.78400
C131        C  0.01078128  0.68175551  0.58806580     0.82400
N132        N  0.01322662  0.66965798  0.62885546    -0.80100
C133        C  0.69584002  0.68045170  0.89764133     0.79900
N134        N  0.66523205  0.65065991  0.89915910    -0.78500
C135        C  0.67566809  0.60925594  0.90254187     0.82300
N136        N  0.71672086  0.59755802  0.90254944    -0.78400
C137        C  0.74735467  0.62707354  0.90038572     0.82400
N138        N  0.73674792  0.66833610  0.89775583    -0.80100
C139        C  0.75224263  0.94035902  0.57997533     0.79900
N140        N  0.72105989  0.94078248  0.55110382    -0.78500
C141        C  0.68033183  0.94121722  0.56398591     0.82300
N142        N  0.67070077  0.94054833  0.60559860    -0.78400
C143        C  0.70161802  0.93959516  0.63471375     0.82400
N144        N  0.74233016  0.93993479  0.62161632    -0.80100
C145        C  0.24518326  0.62388053  0.08251561     0.79900
N146        N  0.21355683  0.62080697  0.05443104    -0.78500
C147        C  0.17315403  0.61821932  0.06812377     0.82300
N148        N  0.16423661  0.61996208  0.11012726    -0.78400
C149        C  0.19595001  0.62411525  0.13837360     0.82400
N150        N  0.23622618  0.62565993  0.12418200    -0.80100
C151        C  0.24631002  0.92693727  0.41529872     0.79900
N152        N  0.23707560  0.88522971  0.41647263    -0.78500
C153        C  0.19653046  0.87192013  0.41608064     0.82300
N154        N  0.16504382  0.90083064  0.41452030    -0.78400
C155        C  0.17397026  0.94254306  0.41449571     0.82400
N156        N  0.21454703  0.95544746  0.41411273    -0.80100
C157        C  0.50412169  0.93140177  0.14737427     0.79900
N158        N  0.50578007  0.88955953  0.13908353    -0.78500
C159        C  0.50779986  0.87498883  0.09894139     0.82300
N160        N  0.50832272  0.90287747  0.06674653    -0.78400
C161        C  0.50657853  0.94480447  0.07468801     0.82400
N162        N  0.50384131  0.95911350  0.11496944    -0.80100
C163        C  0.42096117  0.65141170  0.05399681     0.79900
N164        N  0.43394088  0.69153086  0.06007081    -0.78500
C165        C  0.47528659  0.70076770  0.06325626     0.82300
N166        N  0.50420455  0.66948976  0.06104419    -0.78400
C167        C  0.49162841  0.62909443  0.05549126     0.82400
N168        N  0.45005593  0.62002230  0.05220643    -0.80100
C169        C  0.47082671  0.96638071  0.32208715     0.79900
N170        N  0.50155487  0.96465256  0.35137757    -0.78500
C171        C  0.49173726  0.96259151  0.39280696     0.82300
N172        N  0.45102298  0.96087685  0.40522893    -0.78400
C173        C  0.41984415  0.96235878  0.37638585     0.82400
N174        N  0.42987560  0.96526741  0.33473091    -0.80100
C175        C  0.16887135  0.64944387  0.31728497     0.79900
N176        N  0.16714142  0.61691355  0.34491661    -0.78500
C177        C  0.16833533  0.62461124  0.38708928     0.82300
N178        N  0.17127060  0.66472667  0.40160567    -0.78400
C179        C  0.17226966  0.69729781  0.37418899     0.82400
N180        N  0.17141391  0.68940034  0.33223709    -0.80100
C181        C  0.66810070  0.92914095  0.13911029     0.79900
N182        N  0.66501649  0.88766480  0.12928687    -0.78500
C183        C  0.66057083  0.87498631  0.08883021     0.82300
N184        N  0.65966674  0.90402360  0.05779735    -0.78400
C185        C  0.66241445  0.94554291  0.06706415     0.82400
N186        N  0.66703745  0.95826865  0.10779170    -0.80100
C187        C  0.92156965  0.91800257  0.41044060     0.79900
N188        N  0.95015314  0.94977540  0.40929356    -0.78500
C189        C  0.99191213  0.94079191  0.40633622     0.82300
N190        N  0.00499099  0.90016585  0.40405324    -0.78400
C191        C  0.97667675  0.86843426  0.40619660     0.82400
N192        N  0.93521166  0.87755351  0.40904822    -0.80100
C193        C  0.97283542  0.61877565  0.13995723     0.79900
N194        N  0.00222505  0.61988240  0.10895610    -0.78500
C195        C  0.99046539  0.62043723  0.06809890     0.82300
N196        N  0.94910608  0.62010408  0.05800175    -0.78400
C197        C  0.91941122  0.61865461  0.08890387     0.82400
N198        N  0.93152135  0.61783930  0.12978573    -0.80100
C199        C  0.74293167  0.64619006  0.06330692     0.79900
N200        N  0.73129536  0.68724834  0.06416766    -0.78500
C201        C  0.69008634  0.69828806  0.06552749     0.82300
N202        N  0.66031111  0.66783980  0.06522080    -0.78400
C203        C  0.67171581  0.62672799  0.06394756     0.82400
N204        N  0.71297248  0.61587252  0.06338364    -0.80100
C205        C  0.00501679  0.64187244  0.31592203     0.79900
N206        N  0.00447382  0.61105764  0.34523229    -0.78500
C207        C  0.00457587  0.62094499  0.38671234     0.82300
N208        N  0.00435468  0.66187743  0.39912245    -0.78400
C209        C  0.00485261  0.69307847  0.36995355     0.82400
N210        N  0.00541600  0.68270484  0.32843872    -0.80100
C211        C  0.69998944  0.95899595  0.31571086     0.79900
N212        N  0.73999391  0.95504372  0.32961518    -0.78500
C213        C  0.74866751  0.95391801  0.37126815     0.82300
N214        N  0.71672261  0.95594682  0.39960893    -0.78400
C215        C  0.67640022  0.95947165  0.38631585     0.82400
N216        N  0.66794265  0.96072036  0.34432924    -0.80100
C217        C  0.96678266  0.46149594  0.12417116     0.79900
N218        N  0.92663509  0.45823868  0.11054880    -0.78500
C219        C  0.91817043  0.45276971  0.06916099     0.82300
N220        N  0.95019118  0.45030357  0.04082851    -0.78400
C221        C  0.99049052  0.45428471  0.05394091     0.82400
N222        N  0.99870612  0.45968032  0.09550270    -0.80100
C223        C  0.92332568  0.14492071  0.37398827     0.79900
N224        N  0.95226295  0.11462220  0.38239240    -0.78500
C225        C  0.99368597  0.12478691  0.38538525     0.82300
N226        N  0.00624390  0.16531473  0.37992010    -0.78400
C227        C  0.97744474  0.19557396  0.37132117     0.82400
N228        N  0.93640231  0.18503835  0.36813130    -0.80100
C229        C  0.65735626  0.14196696  0.12466509     0.79900
N230        N  0.65661215  0.18330158  0.11432494    -0.78500
C231        C  0.65765913  0.19544205  0.07337383     0.82300
N232        N  0.65896434  0.16558357  0.04254070    -0.78400
C233        C  0.65892381  0.12414404  0.05288912     0.82400
N234        N  0.65870163  0.11255728  0.09380143    -0.80100
C235        C  0.74206028  0.42323233  0.04355062     0.79900
N236        N  0.71240516  0.45400222  0.04534278    -0.78500
C237        C  0.67111565  0.44408204  0.04905329     0.82300
N238        N  0.65920284  0.40318452  0.05124140    -0.78400
C239        C  0.68848930  0.37218387  0.04856903     0.82400
N240        N  0.72968949  0.38238540  0.04473465    -0.80100
C241        C  0.69136843  0.11025911  0.29840590     0.79900
N242        N  0.73286294  0.11225627  0.30730794    -0.78500
C243        C  0.74634041  0.11277846  0.34769620     0.82300
N244        N  0.71769713  0.11118966  0.37965107    -0.78400
C245        C  0.67595015  0.10908447  0.37078139     0.82400
N246        N  0.66294274  0.10892030  0.33027042    -0.80100
C247        C  0.99428932  0.43121285  0.29952201     0.79900
N248        N  0.99829682  0.38923483  0.30558729    -0.78500
C249        C  0.00209229  0.37308484  0.34487828     0.82300
N250        N  0.00233489  0.39975484  0.37843175    -0.78400
C251        C  0.99822193  0.44191409  0.37257847     0.82400
N252        N  0.99380327  0.45759129  0.33314081    -0.80100
C253        C  0.24659594  0.44964032  0.07695582     0.79900
N254        N  0.21602475  0.45043802  0.04743153    -0.78500
C255        C  0.17497277  0.45107532  0.05911779     0.82300
N256        N  0.16426778  0.45000594  0.10053641    -0.78400
C257        C  0.19467857  0.44987536  0.13030422     0.82400
N258        N  0.23567459  0.44973532  0.11835924    -0.80100
C259        C  0.50765634  0.15278900  0.12752970     0.79900
N260        N  0.50785035  0.11946125  0.10059779    -0.78500
C261        C  0.50801339  0.12601192  0.05829298     0.82300
N262        N  0.50763198  0.16580389  0.04291452    -0.78400
C263        C  0.50802752  0.19913850  0.06967338     0.82400
N264        N  0.50792105  0.19234301  0.11176155    -0.80100
C265        C  0.24474214  0.14518065  0.39330826     0.79900
N266        N  0.23117789  0.18565692  0.39507014    -0.78500
C267        C  0.18969076  0.19485120  0.39809611     0.82300
N268        N  0.16132034  0.16320765  0.39886807    -0.78400
C269        C  0.17432265  0.12258482  0.39755341     0.82400
N270        N  0.21610657  0.11340749  0.39448777    -0.80100
C271        C  0.42223958  0.12204025  0.35686839     0.79900
N272        N  0.43434679  0.12687751  0.31615579    -0.78500
C273        C  0.47537599  0.12558352  0.30458694     0.82300
N274        N  0.50508882  0.12015868  0.33448585    -0.78400
C275        C  0.49364254  0.11582142  0.37556179     0.82400
N276        N  0.45218586  0.11662480  0.38677883    -0.80100
C277        C  0.16413164  0.41825379  0.30676678     0.79900
N278        N  0.16475116  0.44954307  0.33609907    -0.78500
C279        C  0.16209447  0.44009114  0.37767642     0.82300
N280        N  0.15979989  0.39948618  0.39010994    -0.78400
C281        C  0.15909367  0.36806778  0.36125918     0.82400
N282        N  0.16132109  0.37762270  0.31969579    -0.80100
C283        C  0.42208299  0.42333973  0.03988869     0.79900
N284        N  0.43471185  0.38265690  0.03579844    -0.78500
C285        C  0.47629081  0.37288125  0.03467218     0.82300
N286        N  0.50510844  0.40419567  0.03720925    -0.78400
C287        C  0.49259648  0.44482252  0.04067089     0.82400
N288        N  0.45118357  0.45428119  0.04272959    -0.80100
O289        O  0.53858913  0.58373779  0.01959993    -0.73300
O290        O  0.62812354  0.49495586  0.01674366    -0.74300
O291        O  0.53950367  0.49474207  0.01253720    -0.62900
O292        O  0.62723219  0.58356259  0.02397762    -0.71300
O293        O  0.62417245  0.57770006  0.09355632    -0.70900
O294        O  0.53482600  0.48953730  0.08202348    -0.62100
O295        O  0.62350835  0.48829694  0.08613258    -0.74600
O296        O  0.53491114  0.57888055  0.08916400    -0.73400
Cu297      Cu  0.58345623  0.53944778  0.01585072     1.04600
Cu298      Cu  0.57920127  0.53345774  0.09023955     1.04300
C299        C  0.52291381  0.59545023  0.05472360     0.92900
C300        C  0.63952905  0.47739077  0.05079073     0.92000
C301        C  0.52366588  0.47797289  0.04530374     0.84200
C302        C  0.63961213  0.59442185  0.06045370     0.90400
O303        O  0.20088875  0.57429733  0.43115404    -0.73300
O304        O  0.19544750  0.47785875  0.51299107    -0.74300
O305        O  0.19789403  0.48528694  0.42420592    -0.62900
O306        O  0.19880792  0.56710725  0.52079919    -0.71300
O307        O  0.12927342  0.57125308  0.51890787    -0.70900
O308        O  0.12815046  0.48726466  0.42421942    -0.62100
O309        O  0.12587524  0.48209798  0.51313746    -0.74600
O310        O  0.13121332  0.57612372  0.42939947    -0.73400
Cu311      Cu  0.20075341  0.52612202  0.47227642     1.04600
Cu312      Cu  0.12622970  0.52933644  0.47132378     1.04300
C313        C  0.16679023  0.58990625  0.41708792     0.92900
C314        C  0.15966244  0.46501121  0.52596560     0.92000
C315        C  0.16277867  0.47298748  0.40961611     0.84200
C316        C  0.16421253  0.58190282  0.53511293     0.90400
O317        O  0.63162824  0.06487015  0.50316216    -0.73300
O318        O  0.53942210  0.07573922  0.41804236    -0.74300
O319        O  0.62859823  0.07281773  0.41476479    -0.62900
O320        O  0.54203695  0.06799755  0.50680651    -0.71300
O321        O  0.54394118  0.13743148  0.51347105    -0.70900
O322        O  0.63236757  0.14211261  0.42199752    -0.62100
O323        O  0.54219079  0.14518559  0.42399738    -0.74600
O324        O  0.63362913  0.13418158  0.51077869    -0.73400
Cu325      Cu  0.58533704  0.06804061  0.46051450     1.04600
Cu326      Cu  0.58809051  0.14225010  0.46775895     1.04300
C327        C  0.64716851  0.09760609  0.52021230     0.92900
C328        C  0.52633889  0.11209316  0.40761437     0.92000
C329        C  0.64452558  0.10799336  0.40439069     0.84200
C330        C  0.52917845  0.10176791  0.52442499     0.90400
O331        O  0.03855006  0.57077172  0.42909174    -0.73300
O332        O  0.03759138  0.47585476  0.51143113    -0.74300
O333        O  0.03530268  0.48191885  0.42267134    -0.62900
O334        O  0.04084121  0.56466572  0.51783068    -0.71300
O335        O  0.97119535  0.56745830  0.52055596    -0.70900
O336        O  0.96562246  0.48484205  0.42457990    -0.62100
O337        O  0.96792817  0.47826259  0.51406336    -0.74600
O338        O  0.96887935  0.57386571  0.43178952    -0.73400
Cu339      Cu  0.04046756  0.52317363  0.47019682     1.04600
Cu340      Cu  0.96589642  0.52612183  0.47287496     1.04300
C341        C  0.00396631  0.58725246  0.41761972     0.92900
C342        C  0.00272291  0.46227483  0.52575786     0.92000
C343        C  0.99969925  0.47066640  0.40846371     0.84200
C344        C  0.00700922  0.57926536  0.53388014     0.90400
O345        O  0.54025695  0.99156489  0.44045706    -0.73300
O346        O  0.63255538  0.98065897  0.52424344    -0.74300
O347        O  0.62948915  0.99006708  0.43590694    -0.62900
O348        O  0.54395608  0.98264430  0.52905286    -0.71300
O349        O  0.54249925  0.91321511  0.52190102    -0.70900
O350        O  0.62789424  0.92080973  0.42776726    -0.62100
O351        O  0.63191493  0.91125449  0.51644741    -0.74600
O352        O  0.53872261  0.92215511  0.43300262    -0.73400
Cu353      Cu  0.58655032  0.98859280  0.48259783     1.04600
Cu354      Cu  0.58513223  0.91436097  0.47448237     1.04300
C355        C  0.52502630  0.95860895  0.42360973     0.92900
C356        C  0.64681967  0.94441611  0.53334689     0.92000
C357        C  0.64244942  0.95677746  0.41751546     0.84200
C358        C  0.52999570  0.94685887  0.54025852     0.90400
O359        O  0.62997587  0.55993953  0.93521527    -0.73300
O360        O  0.54078481  0.47005584  0.93003238    -0.74300
O361        O  0.63016447  0.47073426  0.92952975    -0.62900
O362        O  0.54069033  0.55921235  0.93608689    -0.71300
O363        O  0.53980957  0.56399032  0.86646350    -0.70900
O364        O  0.63051394  0.47591143  0.85988407    -0.62100
O365        O  0.54063071  0.47483283  0.86043403    -0.74600
O366        O  0.62871485  0.56521333  0.86562770    -0.73400
Cu367      Cu  0.58539135  0.51478944  0.93511482     1.04600
Cu368      Cu  0.58492937  0.52002748  0.86063152     1.04300
C369        C  0.64307820  0.57682900  0.90118891     0.92900
C370        C  0.52644580  0.45872687  0.89441461     0.92000
C371        C  0.64477368  0.45985052  0.89368603     0.84200
C372        C  0.52631823  0.57554958  0.90260182     0.90400
O373        O  0.13107869  0.07179216  0.36412890    -0.73300
O374        O  0.03936999  0.98423555  0.36838030    -0.74300
O375        O  0.04129632  0.07365464  0.35885784    -0.62900
O376        O  0.12844593  0.98325489  0.37271386    -0.71300
O377        O  0.12426797  0.99131213  0.44195304    -0.70900
O378        O  0.03628013  0.08136359  0.42814470    -0.62100
O379        O  0.03473197  0.99267941  0.43758458    -0.74600
O380        O  0.12526059  0.07998514  0.43328514    -0.73400
Cu381      Cu  0.08508905  0.02800143  0.36353615     1.04600
Cu382      Cu  0.07996235  0.03653623  0.43759718     1.04300
C383        C  0.14262229  0.08938823  0.39834529     0.92900
C384        C  0.02304685  0.97449976  0.40387760     0.92000
C385        C  0.02513648  0.09167864  0.39112819     0.84200
C386        C  0.14039801  0.97351831  0.40960470     0.90400
O387        O  0.04269530  0.06539693  0.58524361    -0.73300
O388        O  0.13471278  0.97876413  0.59458781    -0.74300
O389        O  0.13168363  0.06892216  0.58849083    -0.62900
O390        O  0.04518512  0.97643847  0.59135786    -0.71300
O391        O  0.04893150  0.97152009  0.52174862    -0.70900
O392        O  0.13512337  0.06317436  0.51897211    -0.62100
O393        O  0.13775722  0.97368069  0.52502231    -0.74600
O394        O  0.04621704  0.06023045  0.51564537    -0.73400
Cu395      Cu  0.08856008  0.02251927  0.59244451     1.04600
Cu396      Cu  0.09218817  0.01698901  0.51803030     1.04300
C397        C  0.03005898  0.07625765  0.54884132     0.92900
C398        C  0.15026295  0.96226179  0.56119644     0.92000
C399        C  0.14654385  0.08085866  0.55306326     0.84200
C400        C  0.03314462  0.96000366  0.55678576     0.90400
O401        O  0.54081301  0.07462467  0.01537364    -0.73300
O402        O  0.53799916  0.97798102  0.93415538    -0.74300
O403        O  0.53839544  0.06694700  0.92630507    -0.62900
O404        O  0.54020392  0.98595050  0.02285092    -0.71300
O405        O  0.47052769  0.98738014  0.02602770    -0.70900
O406        O  0.46868707  0.06715337  0.92813819    -0.62100
O407        O  0.46830795  0.97747376  0.93711395    -0.74600
O408        O  0.47114383  0.07602326  0.01734128    -0.73400
Cu409      Cu  0.54173352  0.02634608  0.97456589     1.04600
Cu410      Cu  0.46715183  0.02702670  0.97718315     1.04300
C411        C  0.50656814  0.09043713  0.02915535     0.92900
C412        C  0.50291822  0.96226810  0.92319777     0.92000
C413        C  0.50329988  0.07985296  0.91212999     0.84200
C414        C  0.50573645  0.97422425  0.03969216     0.90400
O415        O  0.13250779  0.41800809  0.92303035    -0.73300
O416        O  0.03862021  0.41843859  0.00893318    -0.74300
O417        O  0.04339281  0.41892980  0.91950610    -0.62900
O418        O  0.12824571  0.41711480  0.01253700    -0.71300
O419        O  0.12971047  0.48693016  0.01274721    -0.70900
O420        O  0.04305868  0.48865546  0.92145318    -0.62100
O421        O  0.04062145  0.48820765  0.01082099    -0.74600
O422        O  0.13201046  0.48774362  0.92359294    -0.73400
Cu423      Cu  0.08571553  0.41562302  0.96605931     1.04600
Cu424      Cu  0.08641520  0.49027481  0.96723962     1.04300
C425        C  0.14641448  0.45309579  0.90944645     0.92900
C426        C  0.02492249  0.45351711  0.02323724     0.92000
C427        C  0.02974488  0.45413471  0.90608851     0.84200
C428        C  0.14256562  0.45173132  0.02688018     0.90400
O429        O  0.63103480  0.06725258  0.91800106    -0.73300
O430        O  0.62915435  0.98688178  0.01528159    -0.74300
O431        O  0.62749340  0.07553385  0.00658300    -0.62900
O432        O  0.63302702  0.97773284  0.92610935    -0.71300
O433        O  0.70263937  0.97931986  0.92850096    -0.70900
O434        O  0.69710192  0.07717115  0.00933845    -0.62100
O435        O  0.69873606  0.98866902  0.01823983    -0.74600
O436        O  0.70065865  0.06919931  0.92075931    -0.73400
Cu437      Cu  0.62777921  0.02673328  0.96634738     1.04600
Cu438      Cu  0.70226437  0.02854853  0.96917903     1.04300
C439        C  0.66609929  0.08160099  0.90483169     0.92900
C440        C  0.66346711  0.97563352  0.03238050     0.92000
C441        C  0.66130091  0.09141299  0.02075416     0.84200
C442        C  0.66871561  0.96319839  0.91456173     0.90400
O443        O  0.03692866  0.65066450  0.01806382    -0.73300
O444        O  0.12812142  0.63952701  0.93011600    -0.74300
O445        O  0.03911627  0.64160397  0.92903077    -0.62900
O446        O  0.12651192  0.64891653  0.01933348    -0.71300
O447        O  0.12506439  0.57953521  0.02681108    -0.70900
O448        O  0.03720000  0.57237703  0.93732323    -0.62100
O449        O  0.12611817  0.57029750  0.93790992    -0.74600
O450        O  0.03644273  0.58120817  0.02543830    -0.73400
Cu451      Cu  0.08269053  0.64770946  0.97393732     1.04600
Cu452      Cu  0.08113953  0.57349195  0.98208085     1.04300
C453        C  0.02251020  0.61747059  0.03540647     0.92900
C454        C  0.14121748  0.60281128  0.92019606     0.92000
C455        C  0.02453955  0.60561418  0.91908869     0.84200
C456        C  0.13959612  0.61545270  0.03709280     0.90400
C457        C  0.28973985  0.13699397  0.38413127    -0.05800
C458        C  0.31390698  0.10980557  0.40902877    -0.33300
C459        C  0.35734502  0.10485116  0.40136723     0.36000
C460        C  0.37683356  0.12643462  0.36770553    -0.06200
C461        C  0.35205730  0.15264016  0.34246955    -0.33200
C462        C  0.30933541  0.15839915  0.35071734     0.35900
H463        H  0.29933544  0.09325647  0.43501024     0.16300
O464        O  0.38021623  0.07892136  0.42685864    -0.60700
H465        H  0.36598974  0.16951187  0.31634308     0.16300
O466        O  0.28655895  0.18419458  0.32493334    -0.60800
H467        H  0.29202676  0.21312680  0.33521081     0.43300
H468        H  0.38257850  0.05194942  0.41126553     0.43200
C469        C  0.17578967  0.23882936  0.39441067    -0.05800
C470        C  0.14701942  0.24963447  0.36302579    -0.33300
C471        C  0.13993884  0.29185938  0.35281596     0.36000
C472        C  0.16081799  0.32383664  0.37506056    -0.06200
C473        C  0.18653863  0.31296866  0.40906855    -0.33200
C474        C  0.19463484  0.27076896  0.41835008     0.35900
H475        H  0.13193931  0.22528829  0.34465166     0.16300
O476        O  0.11262004  0.30162880  0.32113923    -0.60700
H477        H  0.20235949  0.33717329  0.42698585     0.16300
O478        O  0.22115536  0.26096357  0.45068177    -0.60800
H479        H  0.24989363  0.26361333  0.43873526     0.43300
H480        H  0.12710520  0.29313890  0.29477989     0.43200
C481        C  0.50528372  0.24274030  0.05415067    -0.05800
C482        C  0.52782490  0.27413856  0.07512996    -0.33300
C483        C  0.52076353  0.31658900  0.06669939     0.36000
C484        C  0.48970386  0.32845855  0.03767478    -0.06200
C485        C  0.46845544  0.29704985  0.01516291    -0.33200
C486        C  0.47664747  0.25435737  0.02264144     0.35900
H487        H  0.54983361  0.26572984  0.09950445     0.16300
O488        O  0.54163085  0.34615982  0.08997161    -0.60700
H489        H  0.44461315  0.30563421  0.99261810     0.16300
O490        O  0.45378793  0.22446850  0.00176917    -0.60800
H491        H  0.46893264  0.21990021  0.97475300     0.43300
H492        H  0.56597568  0.35442486  0.07226559     0.43200
C493        C  0.48682338  0.13340898  0.26008908    -0.05800
C494        C  0.46426194  0.16402277  0.23805940    -0.33300
C495        C  0.47189711  0.17122880  0.19541296     0.36000
C496        C  0.50172972  0.14672016  0.17334702    -0.06200
C497        C  0.52469638  0.11615227  0.19528529    -0.33200
C498        C  0.51798329  0.10996806  0.23864145     0.35900
H499        H  0.44031081  0.18249523  0.25400645     0.16300
O500        O  0.44815894  0.20072044  0.17499452    -0.60700
H501        H  0.54790626  0.09719692  0.17883984     0.16300
O502        O  0.54024460  0.07941292  0.25910666    -0.60800
H503        H  0.56689631  0.09304862  0.26742327     0.43300
H504        H  0.46155134  0.22810460  0.18150472     0.43200
C505        C  0.18367672  0.44469167  0.17507349    -0.05800
C506        C  0.16065440  0.40932894  0.18735784    -0.33300
C507        C  0.15417810  0.40029856  0.22996258     0.36000
C508        C  0.16914749  0.42797646  0.26127812    -0.06200
C509        C  0.19071498  0.46447397  0.24868078    -0.33200
C510        C  0.19880259  0.47240700  0.20599144     0.35900
H511        H  0.14910756  0.38760082  0.16381925     0.16300
O512        O  0.13237717  0.36470322  0.24052808    -0.60700
H513        H  0.20267676  0.48619497  0.27199029     0.16300
O514        O  0.22099171  0.50757532  0.19473226    -0.60800
H515        H  0.25095310  0.49931951  0.19664247     0.43300
H516        H  0.15278120  0.34132235  0.23709371     0.43200
C517        C  0.29136369  0.44586919  0.06460269    -0.05800
C518        C  0.32215036  0.46261294  0.09114382    -0.33300
C519        C  0.36480734  0.45729535  0.08203919     0.36000
C520        C  0.37741441  0.43323469  0.04690148    -0.06200
C521        C  0.34689116  0.41657841  0.02010721    -0.33200
C522        C  0.30410584  0.42325421  0.02833749     0.35900
H523        H  0.31313779  0.47952594  0.11943640     0.16300
O524        O  0.39392345  0.47329375  0.10931132    -0.60700
H525        H  0.35626329  0.39807062  0.99292147     0.16300
O526        O  0.27514113  0.40607976  0.00164380    -0.60800
H527        H  0.26922557  0.37770579  0.01306535     0.43300
H528        H  0.39741482  0.50311223  0.10104941     0.43200
C529        C  0.67772897  0.11378067  0.25443389    -0.05800
C530        C  0.69979692  0.09174344  0.22305721    -0.33300
C531        C  0.69186367  0.09915728  0.18057529     0.36000
C532        C  0.66177832  0.12944686  0.16895339    -0.06200
C533        C  0.63853895  0.15033301  0.20032258    -0.33200
C534        C  0.64608411  0.14243603  0.24287946     0.35900
H535        H  0.72416654  0.06958257  0.23153392     0.16300
O536        O  0.71533687  0.07829836  0.15073818    -0.60700
H537        H  0.61519416  0.17355415  0.19180031     0.16300
O538        O  0.62391401  0.16449744  0.27283203    -0.60800
H539        H  0.64061781  0.19022450  0.27811965     0.43300
H540        H  0.74024881  0.09630464  0.14577370     0.43200
C541        C  0.66133424  0.24082482  0.06339009    -0.05800
C542        C  0.64397496  0.27064209  0.09130813    -0.33300
C543        C  0.65138774  0.31366292  0.08596620     0.36000
C544        C  0.67635250  0.32762850  0.05215683    -0.06200
C545        C  0.69297563  0.29812382  0.02366445    -0.33200
C546        C  0.68570916  0.25504344  0.02903471     0.35900
H547        H  0.62571608  0.26047763  0.11827390     0.16300
O548        O  0.63612768  0.34157142  0.11532841    -0.60700
H549        H  0.71263449  0.30846848  0.99774683     0.16300
O550        O  0.70463103  0.22713199  0.00190591    -0.60800
H551        H  0.73261193  0.22147872  0.01410566     0.43300
H552        H  0.65786266  0.34281436  0.13752141     0.43200
C553        C  0.00133886  0.32669372  0.35065375    -0.05800
C554        C  0.98177889  0.30191729  0.31982596    -0.33300
C555        C  0.97583850  0.25888653  0.32563984     0.36000
C556        C  0.98993044  0.23934447  0.36251916    -0.06200
C557        C  0.01193384  0.26316602  0.39233564    -0.33200
C558        C  0.01730209  0.30673896  0.38686294     0.35900
H559        H  0.96931729  0.31615451  0.29164467     0.16300
O560        O  0.95491767  0.23630312  0.29553957    -0.60700
H561        H  0.02315266  0.24842465  0.42079890     0.16300
O562        O  0.03827553  0.32935152  0.41688254    -0.60800
H563        H  0.01765533  0.33374726  0.44002073     0.43300
H564        H  0.97678545  0.22765885  0.27491227     0.43200
C565        C  0.87815546  0.13493432  0.36809815    -0.05800
C566        C  0.85486681  0.15989796  0.34034642    -0.33300
C567        C  0.81217569  0.15285713  0.33406764     0.36000
C568        C  0.79135149  0.12051139  0.35587975    -0.06200
C569        C  0.81413548  0.09568769  0.38421916    -0.33200
C570        C  0.85745988  0.10229586  0.38993637     0.35900
H571        H  0.86987666  0.18507136  0.32303087     0.16300
O572        O  0.79088784  0.17827542  0.30670172    -0.60700
H573        H  0.79852634  0.07073737  0.40129007     0.16300
O574        O  0.87883590  0.07763807  0.41782467    -0.60800
H575        H  0.88857515  0.05306980  0.40110447     0.43300
H576        H  0.77863739  0.20095322  0.32440513     0.43200
C577        C  0.97564969  0.46186698  0.17008837    -0.05800
C578        C  0.01523945  0.44859001  0.18420536    -0.33300
C579        C  0.02219868  0.44090460  0.22686411     0.36000
C580        C  0.98984009  0.44721109  0.25641040    -0.06200
C581        C  0.95141226  0.46378390  0.24318903    -0.33200
C582        C  0.94397073  0.47089920  0.20038141     0.35900
H583        H  0.04026611  0.44167755  0.16197793     0.16300
O584        O  0.06022606  0.42530105  0.23925546    -0.60700
H585        H  0.92623855  0.46874895  0.26577829     0.16300
O586        O  0.90473433  0.48395685  0.18860228    -0.60800
H587        H  0.90831153  0.51362153  0.17896625     0.43300
H588        H  0.07698646  0.45038122  0.24693808     0.43200
C589        C  0.87435519  0.44734830  0.05606547    -0.05800
C590        C  0.84537194  0.47958157  0.06396938    -0.33300
C591        C  0.80234755  0.47312162  0.05806170     0.36000
C592        C  0.78762325  0.43352880  0.04420678    -0.06200
C593        C  0.81722904  0.40187843  0.03467043    -0.33200
C594        C  0.86026637  0.40860894  0.04040853     0.35900
H595        H  0.85610767  0.50950619  0.07603057     0.16300
O596        O  0.77508029  0.50520939  0.06770669    -0.60700
H597        H  0.80699541  0.37120490  0.02403686     0.16300
O598        O  0.88795112  0.37600799  0.03432723    -0.60800
H599        H  0.88953747  0.37172511  0.00348423     0.43300
H600        H  0.76987184  0.50292075  0.09841562     0.43200
C601        C  0.98534960  0.62095225  0.18443922    -0.05800
C602        C  0.96428856  0.59625093  0.21423395    -0.33300
C603        C  0.97240758  0.60086557  0.25714083     0.36000
C604        C  0.00112621  0.63155177  0.27088867    -0.06200
C605        C  0.02332912  0.65523080  0.24100908    -0.33200
C606        C  0.01603881  0.64972680  0.19799759     0.35900
H607        H  0.94078285  0.57393864  0.20426474     0.16300
O608        O  0.95059854  0.57662965  0.28538543    -0.60700
H609        H  0.04575430  0.67869849  0.25110576     0.16300
O610        O  0.03760739  0.67406843  0.16966665    -0.60800
H611        H  0.02002446  0.69949088  0.16583561     0.43300
H612        H  0.92529551  0.59331987  0.29291555     0.43200
C613        C  0.87426798  0.62108512  0.07857957    -0.05800
C614        C  0.86080759  0.64860528  0.04695683    -0.33300
C615        C  0.81797599  0.65618771  0.04075710     0.36000
C616        C  0.78783259  0.63496617  0.06535188    -0.06200
C617        C  0.80119415  0.60537196  0.09498402    -0.33200
C618        C  0.84403342  0.59904033  0.10236661     0.35900
H619        H  0.88356971  0.66605236  0.02855883     0.16300
O620        O  0.80598712  0.68569671  0.01183190    -0.60700
H621        H  0.77837823  0.58884143  0.11416122     0.16300
O622        O  0.85605066  0.57129341  0.13294593    -0.60800
H623        H  0.85292781  0.58688482  0.15989338     0.43300
H624        H  0.79834154  0.66964267  0.98641805     0.43200
C625        C  0.87623312  0.92646368  0.40475239    -0.05800
C626        C  0.85408029  0.90046892  0.37693309    -0.33300
C627        C  0.81248388  0.90899227  0.36674449     0.36000
C628        C  0.79173259  0.94378314  0.38473647    -0.06200
C629        C  0.81286231  0.96875875  0.41432422    -0.33200
C630        C  0.85515090  0.96048773  0.42414982     0.35900
H631        H  0.86954496  0.87408974  0.36166943     0.16300
O632        O  0.79247352  0.88330188  0.33855553    -0.60700
H633        H  0.79701070  0.99530212  0.42879880     0.16300
O634        O  0.87572142  0.98594972  0.45210452    -0.60800
H635        H  0.86350812  0.97930134  0.48009292     0.43300
H636        H  0.77736047  0.86234976  0.35598164     0.43200
C637        C  0.00210831  0.73808208  0.38249507    -0.05800
C638        C  0.01559282  0.76908005  0.35399752    -0.33300
C639        C  0.01034411  0.81185157  0.36296941     0.36000
C640        C  0.98973133  0.82440216  0.40013229    -0.06200
C641        C  0.97687767  0.79384800  0.42906590    -0.33200
C642        C  0.98339639  0.75098103  0.42087904     0.35900
H643        H  0.02976325  0.76017839  0.32418925     0.16300
O644        O  0.02251132  0.84102084  0.33369432    -0.60700
H645        H  0.96075916  0.80335179  0.45759186     0.16300
O646        O  0.96958554  0.72212968  0.44974550    -0.60800
H647        H  0.93991429  0.71650221  0.44228623     0.43300
H648        H  0.05255252  0.84643063  0.33950894     0.43200
C649        C  0.67788421  0.94102516  0.18301486    -0.05800
C650        C  0.65258353  0.96945426  0.20581060    -0.33300
C651        C  0.65905603  0.97596525  0.24920832     0.36000
C652        C  0.69203402  0.95487501  0.26983837    -0.06200
C653        C  0.71839723  0.92822087  0.24616469    -0.33200
C654        C  0.71144776  0.92109420  0.20346284     0.35900
H655        H  0.62680946  0.98527910  0.19040993     0.16300
O656        O  0.63370210  0.00355217  0.27085002    -0.60700
H657        H  0.74403622  0.91170573  0.26107938     0.16300
O658        O  0.73744626  0.89393321  0.18199502    -0.60800
H659        H  0.76031495  0.91175008  0.17054093     0.43300
H660        H  0.60715912  0.98807169  0.27603613     0.43200
C661        C  0.67832861  0.74318412  0.06802222    -0.05800
C662        C  0.70311291  0.77270092  0.04667880    -0.33300
C663        C  0.69526302  0.81568807  0.05075953     0.36000
C664        C  0.66364298  0.82999574  0.07841610    -0.06200
C665        C  0.63822705  0.80069547  0.09936277    -0.33200
C666        C  0.64469773  0.75742251  0.09351017     0.35900
H667        H  0.72941899  0.76244444  0.02752271     0.16300
O668        O  0.72094183  0.84354125  0.03020978    -0.60700
H669        H  0.61380111  0.81140249  0.12078121     0.16300
O670        O  0.62014747  0.72952265  0.11534636    -0.60800
H671        H  0.59392692  0.72712418  0.09888747     0.43300
H672        H  0.70705131  0.84884169  0.00293807     0.43200
C673        C  0.49983072  0.94573653  0.19142435    -0.05800
C674        C  0.46862150  0.97502339  0.20274470    -0.33300
C675        C  0.45944843  0.98324990  0.24527781     0.36000
C676        C  0.48227798  0.96273857  0.27700060    -0.06200
C677        C  0.51542741  0.93581185  0.26539331    -0.33200
C678        C  0.52393284  0.92689645  0.22313170     0.35900
H679        H  0.44985490  0.98983977  0.17867680     0.16300
O680        O  0.42751833  0.01049131  0.25546541    -0.60700
H681        H  0.53353876  0.91983582  0.28923175     0.16300
O682        O  0.55479660  0.89833941  0.21317908    -0.60800
H683        H  0.58092614  0.91509743  0.21065113     0.43300
H684        H  0.44100994  0.03845000  0.25773653     0.43200
C685        C  0.50401308  0.82931083  0.09067543    -0.05800
C686        C  0.48172929  0.80456042  0.11970084    -0.33300
C687        C  0.47330359  0.76238283  0.11126138     0.36000
C688        C  0.48774038  0.74391337  0.07367035    -0.06200
C689        C  0.51164671  0.76772229  0.04531141    -0.33200
C690        C  0.51962575  0.81034472  0.05344437     0.35900
H691        H  0.46923573  0.81829254  0.14841433     0.16300
O692        O  0.44988190  0.73964359  0.13948527    -0.60700
H693        H  0.52282742  0.75366260  0.01621266     0.16300
O694        O  0.54190060  0.83322907  0.02446939    -0.60800
H695        H  0.57144381  0.83222363  0.03416012     0.43300
H696        H  0.47041941  0.72828369  0.15978581     0.43200
C697        C  0.29044949  0.94047686  0.40959226    -0.05800
C698        C  0.32257535  0.91905177  0.43056606    -0.33300
C699        C  0.36484549  0.92743435  0.42153694     0.36000
C700        C  0.37563015  0.95665104  0.38993748    -0.06200
C701        C  0.34354615  0.97896813  0.36986338    -0.33200
C702        C  0.30129783  0.97178332  0.38011698     0.35900
H703        H  0.31485827  0.89505942  0.45344700     0.16300
O704        O  0.39522523  0.90445874  0.44144650    -0.60700
H705        H  0.35124993  0.00184333  0.34586318     0.16300
O706        O  0.27085235  0.99344697  0.35892455    -0.60800
H707        H  0.26799244  0.02062761  0.37409374     0.43300
H708        H  0.40053310  0.91960387  0.46815787     0.43200
C709        C  0.18713198  0.82660096  0.41062004    -0.05800
C710        C  0.15490967  0.81463011  0.38316856    -0.33300
C711        C  0.14919029  0.77247668  0.37209396     0.36000
C712        C  0.17513111  0.74116390  0.38931739    -0.06200
C713        C  0.20555549  0.75262756  0.41891151    -0.33200
C714        C  0.21208732  0.79507075  0.42916299     0.35900
H715        H  0.13541570  0.83824750  0.36846620     0.16300
O716        O  0.11888596  0.76240076  0.34336549    -0.60700
H717        H  0.22566074  0.72885467  0.43250836     0.16300
O718        O  0.24387456  0.80541989  0.45613021    -0.60800
H719        H  0.23003484  0.81017663  0.48378703     0.43300
H720        H  0.09839117  0.74480405  0.35893664     0.43200
C721        C  0.28899763  0.62786134  0.06840434    -0.05800
C722        C  0.30250594  0.66535576  0.04991026    -0.33300
C723        C  0.34538040  0.67283370  0.04316947     0.36000
C724        C  0.37535054  0.64199131  0.05424784    -0.06200
C725        C  0.36121645  0.60329522  0.07007098    -0.33200
C726        C  0.31847483  0.59657604  0.07803901     0.35900
H727        H  0.27997302  0.68983866  0.04281044     0.16300
O728        O  0.35778077  0.71120948  0.02791782    -0.60700
H729        H  0.38348470  0.57918893  0.07888896     0.16300
O730        O  0.30576112  0.55972932  0.09625959    -0.60800
H731        H  0.30936745  0.56405873  0.12692179     0.43300
H732        H  0.34849312  0.71193376  0.99826764     0.43200
C733        C  0.18737721  0.63060279  0.18395984    -0.05800
C734        C  0.15498325  0.60883526  0.20487288    -0.33300
C735        C  0.14855584  0.61394199  0.24854471     0.36000
C736        C  0.17392080  0.64203525  0.27147981    -0.06200
C737        C  0.20536818  0.66439159  0.25024303    -0.33200
C738        C  0.21234649  0.65881201  0.20723214     0.35900
H739        H  0.13520971  0.58730031  0.18755038     0.16300
O740        O  0.11655023  0.59268539  0.26810695    -0.60700
H741        H  0.22518259  0.68614308  0.26728267     0.16300
O742        O  0.24361471  0.68161498  0.18819303    -0.60800
H743        H  0.22968590  0.70743199  0.17781620     0.43300
H744        H  0.12798107  0.56427259  0.27379723     0.43200
C745        C  0.87709940  0.59963350  0.87463993    -0.05800
C746        C  0.84901338  0.60922411  0.84209303    -0.33300
C747        C  0.80657652  0.61673322  0.85047383     0.36000
C748        C  0.79106776  0.61449392  0.89180404    -0.06200
C749        C  0.81802517  0.60247108  0.92425580    -0.33200
C750        C  0.86093678  0.59544998  0.91607020     0.35900
H751        H  0.86006671  0.61244094  0.80997993     0.16300
O752        O  0.78054913  0.62757559  0.81807989    -0.60700
H753        H  0.80609597  0.59966416  0.95610867     0.16300
O754        O  0.88655840  0.58445728  0.94872977    -0.60800
H755        H  0.89368458  0.61131225  0.96293634     0.43300
H756        H  0.77014085  0.60052097  0.80666360     0.43200
C757        C  0.99100117  0.60146091  0.76938009    -0.05800
C758        C  0.02199427  0.63063521  0.75782267    -0.33300
C759        C  0.03096356  0.63845533  0.71538018     0.36000
C760        C  0.00986875  0.61589581  0.68378295    -0.06200
C761        C  0.98137716  0.58429738  0.69545140    -0.33200
C762        C  0.97132776  0.57751400  0.73785971     0.35900
H763        H  0.03779921  0.64901879  0.78166785     0.16300
O764        O  0.06038898  0.66818847  0.70503909    -0.60700
H765        H  0.96503933  0.56641551  0.67158902     0.16300
O766        O  0.94238110  0.54732607  0.74821914    -0.60800
H767        H  0.91464067  0.56065712  0.74376402     0.43300
H768        H  0.04596136  0.69562303  0.70865656     0.43200
C769        C  0.67815946  0.92148689  0.76686153    -0.05800
C770        C  0.64776395  0.90948840  0.73759130    -0.33300
C771        C  0.65399628  0.91677989  0.69455354     0.36000
C772        C  0.69150450  0.93589456  0.68021564    -0.06200
C773        C  0.72129095  0.94882322  0.70997835    -0.33200
C774        C  0.71475684  0.94194203  0.75293632     0.35900
H775        H  0.61944958  0.89372405  0.74808669     0.16300
O776        O  0.62390548  0.90361798  0.66685298    -0.60700
H777        H  0.75029543  0.96350763  0.69986808     0.16300
O778        O  0.74595069  0.95212458  0.78066923    -0.60800
H779        H  0.73700601  0.97895505  0.79388017     0.43300
H780        H  0.63159919  0.87424238  0.65960012     0.43200
C781        C  0.67296247  0.81214472  0.87480338    -0.05800
C782        C  0.69689876  0.79937844  0.90943356    -0.33300
C783        C  0.70413764  0.75656442  0.91732173     0.36000
C784        C  0.68539962  0.72552377  0.89203256    -0.06200
C785        C  0.65991505  0.73809157  0.85856178    -0.33200
C786        C  0.65474470  0.78088636  0.84904064     0.35900
H787        H  0.71200106  0.82264073  0.92908687     0.16300
O788        O  0.72979017  0.74523475  0.94978207    -0.60700
H789        H  0.64588547  0.71464217  0.83827843     0.16300
O790        O  0.63216556  0.79179716  0.81418118    -0.60800
H791        H  0.65165211  0.78774463  0.79002717     0.43300
H792        H  0.75876181  0.74754869  0.93844352     0.43200
C793        C  0.98791747  0.81235729  0.56291119    -0.05800
C794        C  0.02461987  0.79998555  0.58399451    -0.33300
C795        C  0.03265595  0.75747077  0.59231857     0.36000
C796        C  0.00486382  0.72646357  0.57782700    -0.06200
C797        C  0.96908353  0.73849629  0.55553438    -0.33200
C798        C  0.95990798  0.78096101  0.54892082     0.35900
H799        H  0.04646998  0.82336750  0.59541221     0.16300
O800        O  0.06805208  0.74645740  0.61400355    -0.60700
H801        H  0.94718171  0.71488051  0.54464990     0.16300
O802        O  0.92353703  0.79126046  0.52851604    -0.60800
H803        H  0.90113530  0.78978493  0.55024676     0.43300
H804        H  0.06054340  0.75006803  0.64408667     0.43200
C805        C  0.88341539  0.92521404  0.55380502    -0.05800
C806        C  0.85386487  0.90214803  0.53071744    -0.33300
C807        C  0.81074417  0.90918909  0.53637565     0.36000
C808        C  0.79673631  0.93837251  0.56683774    -0.06200
C809        C  0.82626257  0.96300220  0.58817353    -0.33200
C810        C  0.86931341  0.95725219  0.58119520     0.35900
H811        H  0.86423966  0.87776216  0.50910904     0.16300
O812        O  0.78267957  0.88483878  0.51473158    -0.60700
H813        H  0.81589933  0.98598876  0.61127467     0.16300
O814        O  0.89722670  0.98054061  0.60413773    -0.60800
H815        H  0.90119149  0.00682871  0.58793317     0.43300
H816        H  0.78126448  0.89744516  0.48628931     0.43200
C817        C  0.29180925  0.59654574  0.88892713    -0.05800
C818        C  0.32315322  0.57611450  0.86520570    -0.33300
C819        C  0.36565379  0.58329693  0.87310032     0.36000
C820        C  0.37749811  0.61196604  0.90470383    -0.06200
C821        C  0.34638160  0.63087069  0.92977430    -0.33200
C822        C  0.30375928  0.62311940  0.92242969     0.35900
H823        H  0.31469119  0.55539530  0.83950970     0.16300
O824        O  0.39522758  0.56500154  0.84729376    -0.60700
H825        H  0.35521387  0.65251908  0.95441680     0.16300
O826        O  0.27420112  0.64320403  0.94688008    -0.60800
H827        H  0.27209716  0.67200475  0.93528253     0.43300
H828        H  0.39828340  0.53582329  0.85762341     0.43200
C829        C  0.17835561  0.60692440  0.68663705    -0.05800
C830        C  0.14510001  0.59314544  0.71222848    -0.33300
C831        C  0.15140991  0.58527754  0.75525209     0.36000
C832        C  0.19146770  0.59150638  0.77316312    -0.06200
C833        C  0.22506158  0.60256405  0.74638980    -0.33200
C834        C  0.21863710  0.61059648  0.70376870     0.35900
H835        H  0.11392141  0.59002626  0.69921934     0.16300
O836        O  0.11801249  0.57268599  0.77951917    -0.60700
H837        H  0.25634738  0.60696856  0.75872459     0.16300
O838        O  0.25189722  0.62295253  0.67912548    -0.60800
H839        H  0.25388079  0.65380873  0.68313357     0.43300
H840        H  0.11844149  0.54154752  0.77816857     0.43200
C841        C  0.29743852  0.92046947  0.58067792    -0.05800
C842        C  0.32011699  0.94525371  0.55196977    -0.33300
C843        C  0.36338803  0.95226406  0.55747063     0.36000
C844        C  0.38419335  0.93470651  0.59233384    -0.06200
C845        C  0.36075534  0.91125084  0.62156839    -0.33200
C846        C  0.31809131  0.90379976  0.61578727     0.35900
H847        H  0.30455121  0.95825552  0.52475945     0.16300
O848        O  0.38495086  0.97613626  0.52873540    -0.60700
H849        H  0.37568953  0.89759817  0.64881364     0.16300
O850        O  0.29649570  0.88086471  0.64529220    -0.60800
H851        H  0.30346167  0.85106809  0.63904585     0.43300
H852        H  0.37655591  0.00563919  0.53461997     0.43200
C853        C  0.18818268  0.81362893  0.57983263    -0.05800
C854        C  0.16719167  0.79044259  0.54881278    -0.33300
C855        C  0.16036638  0.74703327  0.55379847     0.36000
C856        C  0.17377244  0.72647059  0.59075838    -0.06200
C857        C  0.19333154  0.75048103  0.62223025    -0.33200
C858        C  0.20079759  0.79334657  0.61686408     0.35900
H859        H  0.15744042  0.80566918  0.52005986     0.16300
O860        O  0.14125997  0.72509314  0.52208626    -0.60700
H861        H  0.20410870  0.73581874  0.65089272     0.16300
O862        O  0.22120239  0.81509777  0.64790847    -0.60800
H863        H  0.19868545  0.82897262  0.66461630     0.43300
H864        H  0.11101518  0.72498462  0.52960023     0.43200
C865        C  0.49878099  0.80983604  0.89128273    -0.05800
C866        C  0.47067632  0.79769755  0.92327154    -0.33300
C867        C  0.46232568  0.75491061  0.93068450     0.36000
C868        C  0.48351688  0.72362224  0.90718418    -0.06200
C869        C  0.51356793  0.73583213  0.87727176    -0.33200
C870        C  0.52060227  0.77830109  0.86864220     0.35900
H871        H  0.45357161  0.82133407  0.94106911     0.16300
O872        O  0.43367687  0.74396988  0.96109740    -0.60700
H873        H  0.53020393  0.71232312  0.85882662     0.16300
O874        O  0.54884428  0.78869790  0.83769180    -0.60800
H875        H  0.53404634  0.78362812  0.81077368     0.43300
H876        H  0.40582357  0.74707803  0.94764117     0.43200
C877        C  0.50988789  0.91180154  0.77710580    -0.05800
C878        C  0.49548152  0.87995933  0.75007979    -0.33300
C879        C  0.48974464  0.88747837  0.70737281     0.36000
C880        C  0.49986543  0.92681264  0.69030309    -0.06200
C881        C  0.51699534  0.95800746  0.71626338    -0.33200
C882        C  0.52158568  0.95094423  0.75963990     0.35900
H883        H  0.48637850  0.84954639  0.76228728     0.16300
O884        O  0.47314792  0.85638652  0.68253542    -0.60700
H885        H  0.52471450  0.98852946  0.70336835     0.16300
O886        O  0.53725671  0.98245235  0.78450991    -0.60800
H887        H  0.51324552  0.00169932  0.78986331     0.43300
H888        H  0.44241745  0.85754945  0.68766048     0.43200
C889        C  0.49310129  0.22544033  0.86194406    -0.05800
C890        C  0.51597023  0.24679705  0.89302510    -0.33300
C891        C  0.51001336  0.29016649  0.89983118     0.36000
C892        C  0.47976825  0.31228945  0.87641148    -0.06200
C893        C  0.45667919  0.29057989  0.84584305    -0.33200
C894        C  0.46331354  0.24783524  0.83831698     0.35900
H895        H  0.53882556  0.22997799  0.91161755     0.16300
O896        O  0.53259060  0.31015892  0.93049302    -0.60700
H897        H  0.43339993  0.30694542  0.82733723     0.16300
O898        O  0.43987770  0.22807642  0.80810843    -0.60800
H899        H  0.41630455  0.21475234  0.82359216     0.43300
H900        H  0.55958695  0.31781832  0.91685644     0.43200
C901        C  0.50225333  0.11030742  0.76032615    -0.05800
C902        C  0.47323775  0.07983278  0.74743029    -0.33300
C903        C  0.46614503  0.07248718  0.70452452     0.36000
C904        C  0.48907120  0.09499074  0.67385507    -0.06200
C905        C  0.52039466  0.12299131  0.68694824    -0.33200
C906        C  0.52668337  0.13112546  0.72970080     0.35900
H907        H  0.45417374  0.06361028  0.77056563     0.16300
O908        O  0.43544470  0.04466855  0.69296909    -0.60700
H909        H  0.53831804  0.14063190  0.66394488     0.16300
O910        O  0.55542698  0.16105197  0.74109893    -0.60800
H911        H  0.57777127  0.14554645  0.75609122     0.43300
H912        H  0.45034493  0.01791385  0.68703153     0.43200
C913        C  0.17154996  0.31703027  0.57019672    -0.05800
C914        C  0.14415617  0.29224551  0.54617429    -0.33300
C915        C  0.15250565  0.24920639  0.53933213     0.36000
C916        C  0.18903344  0.23060311  0.55609145    -0.06200
C917        C  0.21684173  0.25605330  0.57895306    -0.33200
C918        C  0.20808417  0.29854548  0.58650363     0.35900
H919        H  0.11588417  0.30605908  0.53342199     0.16300
O920        O  0.12495430  0.22579014  0.51608868    -0.60700
H921        H  0.24518797  0.24272958  0.59204621     0.16300
O922        O  0.23603834  0.32213101  0.60915042    -0.60800
H923        H  0.22875962  0.31698419  0.63906741     0.43300
H924        H  0.13423405  0.22923007  0.48646505     0.43200
C925        C  0.38031389  0.09990098  0.56578356    -0.05800
C926        C  0.36838830  0.12678836  0.53292948    -0.33300
C927        C  0.32603359  0.13678344  0.52650776     0.36000
C928        C  0.29477966  0.11831768  0.55182421    -0.06200
C929        C  0.30642645  0.08916957  0.58262527    -0.33200
C930        C  0.34874829  0.08044311  0.59022700     0.35900
H931        H  0.39203588  0.14198056  0.51365403     0.16300
O932        O  0.31546423  0.16459165  0.49544912    -0.60700
H933        H  0.28269339  0.07478675  0.60244012     0.16300
O934        O  0.35881792  0.05427053  0.62283583    -0.60800
H935        H  0.36555832  0.02677537  0.60957448     0.43300
H936        H  0.31945107  0.19285709  0.50798850     0.43200
C937        C  0.29232300  0.44562305  0.85760723    -0.05800
C938        C  0.31289148  0.46386073  0.89218306    -0.33300
C939        C  0.35545546  0.45495550  0.90000790     0.36000
C940        C  0.37741244  0.42642823  0.87388124    -0.06200
C941        C  0.35685581  0.40855611  0.83940606    -0.33200
C942        C  0.31508878  0.41829119  0.83080276     0.35900
H943        H  0.29593746  0.48487132  0.91317597     0.16300
O944        O  0.37444530  0.47208346  0.93461783    -0.60700
H945        H  0.37327661  0.38653720  0.81900663     0.16300
O946        O  0.29607597  0.39864977  0.79753058    -0.60800
H947        H  0.30393182  0.41546212  0.77249322     0.43300
H948        H  0.38305952  0.50071634  0.92598761     0.43200
C949        C  0.15794530  0.42998225  0.67441839    -0.05800
C950        C  0.18556458  0.46290936  0.68409469    -0.33300
C951        C  0.19528947  0.47238880  0.72586511     0.36000
C952        C  0.17583629  0.45015160  0.75877074    -0.06200
C953        C  0.14535154  0.41978920  0.74920073    -0.33200
C954        C  0.13695933  0.40902454  0.70728907     0.35900
H955        H  0.20174529  0.47962303  0.65917942     0.16300
O956        O  0.22431139  0.50301646  0.73424892    -0.60700
H957        H  0.12993423  0.40252527  0.77421386     0.16300
O958        O  0.10837899  0.37800721  0.69874488    -0.60800
H959        H  0.12375070  0.35121135  0.70276787     0.43300
H960        H  0.25204217  0.48945091  0.72975470     0.43200
C961        C  0.98813655  0.43601425  0.75889481    -0.05800
C962        C  0.01108413  0.46357870  0.73323917    -0.33300
C963        C  0.01727879  0.45448105  0.69032560     0.36000
C964        C  0.00108996  0.41694688  0.67292593    -0.06200
C965        C  0.97970227  0.38882491  0.69936038    -0.33200
C966        C  0.97267988  0.39838421  0.74171253     0.35900
H967        H  0.02306318  0.49270895  0.74616115     0.16300
O968        O  0.03874870  0.48261338  0.66572404    -0.60700
H969        H  0.96697750  0.35982455  0.68689260     0.16300
O970        O  0.95099218  0.37042038  0.76637128    -0.60800
H971        H  0.92093688  0.37571256  0.76041899     0.43300
H972        H  0.06862905  0.47408501  0.66761726     0.43200
C973        C  0.88081028  0.45000302  0.86797684    -0.05800
C974        C  0.85001699  0.46249349  0.83912209    -0.33300
C975        C  0.80753245  0.45384430  0.84643340     0.36000
C976        C  0.79529081  0.43141360  0.88246483    -0.06200
C977        C  0.82556100  0.42047778  0.91228220    -0.33200
C978        C  0.86798441  0.43042154  0.90571876     0.35900
H979        H  0.85903718  0.47790613  0.81010772     0.16300
O980        O  0.77859217  0.46456320  0.81659898    -0.60700
H981        H  0.81638628  0.40333634  0.94024124     0.16300
O982        O  0.89686909  0.41799320  0.93489740    -0.60800
H983        H  0.89852413  0.44165197  0.95517172     0.43300
H984        H  0.76940348  0.49341427  0.82422797     0.43200
C985        C  0.00045862  0.31174013  0.55988083    -0.05800
C986        C  0.02520747  0.28207214  0.58090415    -0.33300
C987        C  0.02022329  0.23896643  0.57346598     0.36000
C988        C  0.98929369  0.22480434  0.54531501    -0.06200
C989        C  0.96565676  0.25454954  0.52302437    -0.33200
C990        C  0.97128379  0.29774120  0.52984991     0.35900
H991        H  0.04780509  0.29233765  0.60407325     0.16300
O992        O  0.04312598  0.21096322  0.59666897    -0.60700
H993        H  0.94184322  0.24422070  0.50115088     0.16300
O994        O  0.94648276  0.32580942  0.50874911    -0.60800
H995        H  0.92126037  0.32971422  0.52681645     0.43300
H996        H  0.07080376  0.20909843  0.58228386     0.43200
C997        C  0.88099897  0.11642336  0.55113720    -0.05800
C998        C  0.86238617  0.08204791  0.53041025    -0.33300
C999        C  0.81940119  0.07304867  0.53628782     0.36000
C1000       C  0.79513370  0.09773699  0.56421331    -0.06200
C1001       C  0.81421936  0.13112274  0.58558606    -0.33200
C1002       C  0.85638396  0.14081442  0.57899976     0.35900
H1003       H  0.88098440  0.06261289  0.50930118     0.16300
O1004       O  0.80192649  0.03929322  0.51607240    -0.60700
H1005       H  0.79612752  0.15021961  0.60747752     0.16300
O1006       O  0.87377422  0.17311644  0.60162654    -0.60800
H1007       H  0.86574543  0.19912502  0.58649353     0.43300
H1008       H  0.79401069  0.04992484  0.48794731     0.43200
C1009       C  0.67947252  0.22901595  0.86077332    -0.05800
C1010       C  0.70792403  0.25172377  0.83581661    -0.33300
C1011       C  0.71634690  0.29399715  0.84413782     0.36000
C1012       C  0.69543190  0.31490894  0.87731551    -0.06200
C1013       C  0.66609765  0.29267153  0.90181787    -0.33200
C1014       C  0.65852303  0.24977078  0.89415019     0.35900
H1015       H  0.72420669  0.23647584  0.80987439     0.16300
O1016       O  0.74367927  0.31518222  0.81831297    -0.60700
H1017       H  0.64940973  0.30845397  0.92717230     0.16300
O1018       O  0.62918166  0.22904553  0.91802205    -0.60800
H1019       H  0.64447773  0.21909269  0.94309094     0.43300
H1020       H  0.77206582  0.30832685  0.82897397     0.43200
C1021       C  0.67250648  0.11743120  0.75462842    -0.05800
C1022       C  0.66065868  0.14635891  0.72356242    -0.33300
C1023       C  0.66576863  0.13694427  0.68088543     0.36000
C1024       C  0.68417981  0.09864355  0.66855079    -0.06200
C1025       C  0.69554455  0.06932752  0.69919526    -0.33200
C1026       C  0.68935794  0.07822816  0.74199271     0.35900
H1027       H  0.64793699  0.17677986  0.73234484     0.16300
O1028       O  0.65561684  0.16670059  0.65154283    -0.60700
H1029       H  0.71017530  0.03992279  0.68991364     0.16300
O1030       O  0.70176823  0.04919992  0.77109984    -0.60800
H1031       H  0.73101350  0.05697808  0.77823372     0.43300
H1032       H  0.62558361  0.16178363  0.64521355     0.43200
loop_ 
_geom_bond_atom_site_label_1 
_geom_bond_atom_site_label_2 
_geom_bond_distance 
_geom_bond_site_symmetry_2 
_ccdc_geom_bond_type 
C1            N2   1.359       .  A
C1            N6   1.358       .  A
C1         C1021   1.484       .  S
N2            C3   1.358       .  A
C3            N4   1.361       .  A
C3          C439   1.463       .  S
N4            C5   1.360       .  A
C5            N6   1.357       .  A
C5         C1009   1.482       .  S
C7            N8   1.359       .  A
C7           N12   1.360       .  A
C7          C997   1.482       .  S
N8            C9   1.356       .  A
C9           N10   1.358   1_655  A
C9          C988   1.481       .  S
N10          C11   1.359   1_455  A
C11          N12   1.361       .  A
C11         C397   1.461   1_655  S
C13          N14   1.357       .  A
C13          N18   1.359   1_655  A
C13         C961   1.473       .  S
N14          C15   1.357       .  A
C15          N16   1.359       .  A
C15         C973   1.484       .  S
N16          C17   1.359       .  A
C17          N18   1.361   1_655  A
C17         C427   1.463   1_655  S
C19          N20   1.357       .  A
C19          N24   1.357       .  A
C19         C976   1.473       .  S
N20          C21   1.358       .  A
C21          N22   1.360       .  A
C21         C371   1.460       .  S
N22          C23   1.360       .  A
C23          N24   1.360       .  A
C23        C1012   1.479       .  S
C25          N26   1.358       .  A
C25          N30   1.359       .  A
C25         C964   1.484       .  S
N26          C27   1.358       .  A
C27          N28   1.359       .  A
C27         C342   1.458       .  S
N28          C29   1.359       .  A
C29          N30   1.358       .  A
C29         C985   1.479       .  S
C31          N32   1.353       .  A
C31          N36   1.355       .  A
C31        C1024   1.468       .  S
N32          C33   1.357       .  A
C33          N34   1.364       .  A
C33        C1000   1.479       .  S
N34          C35   1.365       .  A
C35          N36   1.357       .  A
C35         C327   1.465       .  S
C37          N38   1.362       .  A
C37          N42   1.359       .  A
C37         C937   1.484       .  S
N38          C39   1.362       .  A
C39          N40   1.357       .  A
C39         C425   1.458       .  S
N40          C41   1.355       .  A
C41          N42   1.356       .  A
C41         C952   1.475       .  S
C43          N44   1.358       .  A
C43          N48   1.355       .  A
C43         C928   1.476       .  S
N44          C45   1.361       .  A
C45          N46   1.365       .  A
C45         C916   1.491       .  S
N46          C47   1.364       .  A
C47          N48   1.355       .  A
C47         C399   1.465       .  S
C49          N50   1.356       .  A
C49          N54   1.360       .  A
C49         C901   1.479       .  S
N50          C51   1.356       .  A
C51          N52   1.360       .  A
C51         C889   1.480       .  S
N52          C53   1.362       .  A
C53          N54   1.362       .  A
C53         C413   1.465       .  S
C55          N56   1.359       .  A
C55          N60   1.356       .  A
C55         C940   1.479       .  S
N56          C57   1.362       .  A
C57          N58   1.362       .  A
C57         C370   1.465       .  S
N58          C59   1.361       .  A
C59          N60   1.357       .  A
C59         C892   1.483       .  S
C61          N62   1.360       .  A
C61          N66   1.359       .  A
C61         C925   1.483       .  S
N62          C63   1.359       .  A
C63          N64   1.359       .  A
C63         C330   1.465       .  S
N64          C65   1.361       .  A
C65          N66   1.358       .  A
C65         C904   1.482       .  S
C67          N68   1.355       .  A
C67          N72   1.359       .  A
C67         C949   1.476       .  S
N68          C69   1.354       .  A
C69          N70   1.363       .  A
C69         C314   1.463       .  S
N70          C71   1.363       .  A
C71          N72   1.361       .  A
C71         C913   1.482       .  S
C73          N74   1.356       .  A
C73          N78   1.357       .  A
C73         C877   1.486       .  S
N74          C75   1.356       .  A
C75          N76   1.362       .  A
C75         C865   1.487       .  S
N76          C77   1.365       .  A
C77          N78   1.359       .  A
C77         C412   1.463       .  S
C79          N80   1.359       .  A
C79          N84   1.356       .  A
C79         C841   1.476       .  S
N80          C81   1.362       .  A
C81          N82   1.363       .  A
C81         C398   1.466       .  S
N82          C83   1.360       .  A
C83          N84   1.355       .  A
C83         C853   1.477       .  S
C85          N86   1.356       .  A
C85          N90   1.357       .  A
C85         C817   1.481       .  S
N86          C87   1.357       .  A
C87          N88   1.362       .  A
C87         C454   1.460       .  S
N88          C89   1.362       .  A
C89          N90   1.359       .  A
C89         C832   1.492       .  S
C91          N92   1.357       .  A
C91          N96   1.361       .  A
C91         C820   1.476       .  S
N92          C93   1.354       .  A
C93          N94   1.358       .  A
C93         C372   1.458       .  S
N94          C95   1.361       .  A
C95          N96   1.361       .  A
C95         C868   1.482       .  S
C97          N98   1.356       .  A
C97         N102   1.358       .  A
C97         C829   1.473       .  S
N98          C99   1.359       .  A
C99         N100   1.361       .  A
C99         C856   1.491       .  S
N100        C101   1.362       .  A
C101        N102   1.361       .  A
C101        C316   1.465       .  S
C103        N104   1.361       .  A
C103        N108   1.355       .  A
C103        C844   1.485       .  S
N104        C105   1.363       .  A
C105        N106   1.362       .  A
C105        C358   1.463       .  S
N106        C107   1.357       .  A
C107        N108   1.353       .  A
C107        C880   1.469       .  S
C109        N110   1.358       .  A
C109        N114   1.361   1_655  A
C109        C793   1.486       .  S
N110        C111   1.357       .  A
C111        N112   1.357       .  A
C111        C805   1.477       .  S
N112        C113   1.358       .  A
C113        N114   1.359   1_655  A
C113        C400   1.460   1_655  S
C115        N116   1.367       .  A
C115        N120   1.359       .  A
C115        C781   1.491       .  S
N116        C117   1.365       .  A
C117        N118   1.357       .  A
C117        C442   1.470       .  S
N118        C119   1.356       .  A
C119        N120   1.356       .  A
C119        C769   1.471       .  S
C121        N122   1.356   1_655  A
C121        N126   1.359       .  A
C121        C757   1.478       .  S
N122        C123   1.356   1_455  A
C123        N124   1.358       .  A
C123        C455   1.457   1_655  S
N124        C125   1.360       .  A
C125        N126   1.362       .  A
C125        C745   1.492       .  S
C127        N128   1.360       .  A
C127        N132   1.360       .  A
C127        C760   1.478       .  S
N128        C129   1.358       .  A
C129        N130   1.357       .  A
C129        C344   1.459       .  S
N130        C131   1.357       .  A
C131        N132   1.357       .  A
C131        C796   1.473       .  S
C133        N134   1.362       .  A
C133        N138   1.358       .  A
C133        C784   1.483       .  S
N134        C135   1.363       .  A
C135        N136   1.359       .  A
C135        C369   1.466       .  S
N136        C137   1.357       .  A
C137        N138   1.358       .  A
C137        C748   1.472       .  S
C139        N140   1.358       .  A
C139        N144   1.359       .  A
C139        C808   1.476       .  S
N140        C141   1.358       .  A
C141        N142   1.356       .  A
C141        C356   1.454       .  S
N142        C143   1.357       .  A
C143        N144   1.359       .  A
C143        C772   1.485       .  S
C145        N146   1.355       .  A
C145        N150   1.354       .  A
C145        C721   1.469       .  S
N146        C147   1.359       .  A
C147        N148   1.364       .  A
C147        C456   1.463       .  S
N148        C149   1.363       .  A
C149        N150   1.358       .  A
C149        C733   1.487       .  S
C151        N152   1.360       .  A
C151        N156   1.358       .  A
C151        C697   1.482       .  S
N152        C153   1.360       .  A
C153        N154   1.361       .  A
C153        C709   1.483       .  S
N154        C155   1.358       .  A
C155        N156   1.357       .  A
C155        C386   1.463       .  S
C157        N158   1.357       .  A
C157        N162   1.359       .  A
C157        C673   1.477       .  S
N158        C159   1.357       .  A
C159        N160   1.357       .  A
C159        C685   1.481       .  S
N160        C161   1.358       .  A
C161        N162   1.360       .  A
C161        C414   1.457       .  S
C163        N164   1.356       .  A
C163        N168   1.362       .  A
C163        C724   1.484       .  S
N164        C165   1.355       .  A
C165        N166   1.356       .  A
C165        C688   1.467       .  S
N166        C167   1.358       .  A
C167        N168   1.361       .  A
C167        C299   1.461       .  S
C169        N170   1.357       .  A
C169        N174   1.363       .  A
C169        C676   1.481       .  S
N170        C171   1.354       .  A
C171        N172   1.354       .  A
C171        C355   1.455       .  S
N172        C173   1.358       .  A
C173        N174   1.364       .  A
C173        C700   1.482       .  S
C175        N176   1.361       .  A
C175        N180   1.358       .  A
C175        C736   1.482       .  S
N176        C177   1.363       .  A
C177        N178   1.359       .  A
C177        C313   1.463       .  S
N178        C179   1.357       .  A
C179        N180   1.357       .  A
C179        C712   1.478       .  S
C181        N182   1.359       .  A
C181        N186   1.364       .  A
C181        C649   1.481       .  S
N182        C183   1.355       .  A
C183        N184   1.355       .  A
C183        C664   1.471       .  S
N184        C185   1.356       .  A
C185        N186   1.365       .  A
C185        C440   1.463       .  S
C187        N188   1.362       .  A
C187        N192   1.358       .  A
C187        C625   1.481       .  S
N188        C189   1.363       .  A
C189        N190   1.359   1_655  A
C189        C384   1.464   1_655  S
N190        C191   1.357   1_455  A
C191        N192   1.354       .  A
C191        C640   1.472       .  S
C193        N194   1.355   1_655  A
C193        N198   1.358       .  A
C193        C601   1.474       .  S
N194        C195   1.355   1_455  A
C195        N196   1.359       .  A
C195        C453   1.454   1_655  S
N196        C197   1.360       .  A
C197        N198   1.359       .  A
C197        C613   1.480       .  S
C199        N200   1.357       .  A
C199        N204   1.358       .  A
C199        C616   1.476       .  S
N200        C201   1.359       .  A
C201        N202   1.357       .  A
C201        C661   1.478       .  S
N202        C203   1.357       .  A
C203        N204   1.358       .  A
C203        C302   1.456       .  S
C205        N206   1.355       .  A
C205        N210   1.357       .  A
C205        C604   1.474       .  S
N206        C207   1.355       .  A
C207        N208   1.359       .  A
C207        C341   1.457       .  S
N208        C209   1.361       .  A
C209        N210   1.360       .  A
C209        C637   1.487       .  S
C211        N212   1.358       .  A
C211        N216   1.364       .  A
C211        C652   1.488       .  S
N212        C213   1.356       .  A
C213        N214   1.356       .  A
C213        C628   1.476       .  S
N214        C215   1.360       .  A
C215        N216   1.365       .  A
C215        C357   1.465       .  S
C217        N218   1.358       .  A
C217        N222   1.362       .  A
C217        C577   1.489       .  S
N218        C219   1.356       .  A
C219        N220   1.358       .  A
C219        C589   1.470       .  S
N220        C221   1.359       .  A
C221        N222   1.360       .  A
C221        C426   1.463   1_655  S
C223        N224   1.361       .  A
C223        N228   1.357       .  A
C223        C565   1.487       .  S
N224        C225   1.363       .  A
C225        N226   1.362   1_655  A
C225        C385   1.465   1_655  S
N226        C227   1.359   1_455  A
C227        N228   1.355       .  A
C227        C556   1.476       .  S
C229        N230   1.357       .  A
C229        N234   1.354       .  A
C229        C532   1.473       .  S
N230        C231   1.360       .  A
C231        N232   1.363       .  A
C231        C541   1.484       .  S
N232        C233   1.360       .  A
C233        N234   1.354       .  A
C233        C441   1.458       .  S
C235        N236   1.360       .  A
C235        N240   1.359       .  A
C235        C592   1.489       .  S
N236        C237   1.358       .  A
C237        N238   1.358       .  A
C237        C300   1.461       .  S
N238        C239   1.358       .  A
C239        N240   1.357       .  A
C239        C544   1.475       .  S
C241        N242   1.356       .  A
C241        N246   1.355       .  A
C241        C529   1.472       .  S
N242        C243   1.357       .  A
C243        N244   1.362       .  A
C243        C568   1.480       .  S
N244        C245   1.363       .  A
C245        N246   1.356       .  A
C245        C329   1.460       .  S
C247        N248   1.356       .  A
C247        N252   1.357       .  A
C247        C580   1.472       .  S
N248        C249   1.359   1_655  A
C249        N250   1.361       .  A
C249        C553   1.488       .  S
N250        C251   1.361   1_455  A
C251        N252   1.360       .  A
C251        C343   1.461       .  S
C253        N254   1.358       .  A
C253        N258   1.359       .  A
C253        C517   1.481       .  S
N254        C255   1.357       .  A
C255        N256   1.359       .  A
C255        C428   1.461       .  S
N256        C257   1.360       .  A
C257        N258   1.357       .  A
C257        C505   1.474       .  S
C259        N260   1.360       .  A
C259        N264   1.356       .  A
C259        C496   1.481       .  S
N260        C261   1.362       .  A
C261        N262   1.359       .  A
C261        C411   1.461       .  S
N262        C263   1.357       .  A
C263        N264   1.357       .  A
C263        C481   1.477       .  S
C265        N266   1.358       .  A
C265        N270   1.363       .  A
C265        C457   1.483       .  S
N266        C267   1.356       .  A
C267        N268   1.354       .  A
C267        C469   1.472       .  S
N268        C269   1.357       .  A
C269        N270   1.365       .  A
C269        C383   1.463       .  S
C271        N272   1.358       .  A
C271        N276   1.363       .  A
C271        C460   1.491       .  S
N272        C273   1.356       .  A
C273        N274   1.358       .  A
C273        C493   1.481       .  S
N274        C275   1.361       .  A
C275        N276   1.366       .  A
C275        C328   1.468       .  S
C277        N278   1.362       .  A
C277        N282   1.361       .  A
C277        C508   1.488       .  S
N278        C279   1.359       .  A
C279        N280   1.354       .  A
C279        C315   1.456       .  S
N280        C281   1.355       .  A
C281        N282   1.359       .  A
C281        C472   1.477       .  S
C283        N284   1.360       .  A
C283        N288   1.357       .  A
C283        C520   1.472       .  S
N284        C285   1.360       .  A
C285        N286   1.359       .  A
C285        C484   1.479       .  S
N286        C287   1.356       .  A
C287        N288   1.354       .  A
C287        C301   1.456       .  S
O289       Cu297   2.008       .  S
O289        C299   1.274       .  A
O290       Cu297   2.006       .  S
O290        C300   1.275       .  A
O291       Cu297   2.001       .  S
O291        C301   1.274       .  A
O292       Cu297   1.998       .  S
O292        C302   1.275       .  A
O293       Cu298   2.014       .  S
O293        C302   1.277       .  A
O294       Cu298   2.008       .  S
O294        C301   1.276       .  A
O295       Cu298   2.015       .  S
O295        C300   1.277       .  A
O296       Cu298   2.018       .  S
O296        C299   1.278       .  A
Cu297      Cu298   2.377       .  S
O303       Cu311   2.019       .  S
O303        C313   1.278       .  A
O304       Cu311   2.019       .  S
O304        C314   1.278       .  A
O305       Cu311   2.005       .  S
O305        C315   1.276       .  A
O306       Cu311   2.017       .  S
O306        C316   1.278       .  A
O307       Cu312   2.016       .  S
O307        C316   1.276       .  A
O308       Cu312   2.006       .  S
O308        C315   1.276       .  A
O309       Cu312   2.011       .  S
O309        C314   1.275       .  A
O310       Cu312   2.008       .  S
O310        C313   1.276       .  A
Cu311      Cu312   2.377       .  S
O317       Cu325   2.014       .  S
O317        C327   1.275       .  A
O318       Cu325   2.014       .  S
O318        C328   1.275       .  A
O319       Cu325   2.003       .  S
O319        C329   1.273       .  A
O320       Cu325   2.010       .  S
O320        C330   1.275       .  A
O321       Cu326   2.022       .  S
O321        C330   1.278       .  A
O322       Cu326   2.019       .  S
O322        C329   1.278       .  A
O323       Cu326   2.028       .  S
O323        C328   1.279       .  A
O324       Cu326   2.018       .  S
O324        C327   1.278       .  A
Cu325      Cu326   2.373       .  S
O331       Cu339   2.005       .  S
O331        C341   1.276       .  A
O332       Cu339   2.002       .  S
O332        C342   1.274       .  A
O333       Cu339   2.006       .  S
O333        C343   1.276   1_455  A
O334       Cu339   2.006       .  S
O334        C344   1.275       .  A
O335       Cu340   2.012       .  S
O335        C344   1.277   1_655  A
O336       Cu340   2.017       .  S
O336        C343   1.278       .  A
O337       Cu340   2.014       .  S
O337        C342   1.277   1_655  A
O338       Cu340   2.009       .  S
O338        C341   1.277   1_655  A
Cu339      Cu340   2.378   1_455  S
O345       Cu353   2.002       .  S
O345        C355   1.274       .  A
O346       Cu353   1.999       .  S
O346        C356   1.274       .  A
O347       Cu353   2.012       .  S
O347        C357   1.274       .  A
O348       Cu353   2.008       .  S
O348        C358   1.274       .  A
O349       Cu354   2.022       .  S
O349        C358   1.279       .  A
O350       Cu354   2.019       .  S
O350        C357   1.278       .  A
O351       Cu354   2.011       .  S
O351        C356   1.276       .  A
O352       Cu354   2.004       .  S
O352        C355   1.276       .  A
Cu353      Cu354   2.375       .  S
O359       Cu367   2.022       .  S
O359        C369   1.278       .  A
O360       Cu367   2.020       .  S
O360        C370   1.275       .  A
O361       Cu367   2.004       .  S
O361        C371   1.274       .  A
O362       Cu367   2.004       .  S
O362        C372   1.274       .  A
O363       Cu368   2.011       .  S
O363        C372   1.276       .  A
O364       Cu368   2.018       .  S
O364        C371   1.278       .  A
O365       Cu368   2.017       .  S
O365        C370   1.278       .  A
O366       Cu368   2.012       .  S
O366        C369   1.277       .  A
Cu367      Cu368   2.375       .  S
O373       Cu381   2.024       .  S
O373        C383   1.279       .  A
O374       Cu381   2.023   1_565  S
O374        C384   1.279       .  A
O375       Cu381   2.019       .  S
O375        C385   1.278       .  A
O376       Cu381   2.005   1_565  S
O376        C386   1.275       .  A
O377       Cu382   2.019   1_565  S
O377        C386   1.276       .  A
O378       Cu382   2.016       .  S
O378        C385   1.276       .  A
O379       Cu382   2.008   1_565  S
O379        C384   1.274       .  A
O380       Cu382   2.005       .  S
O380        C383   1.274       .  A
Cu381      Cu382   2.374       .  S
O387       Cu395   2.012       .  S
O387        C397   1.277       .  A
O388       Cu395   2.025   1_565  S
O388        C398   1.279       .  A
O389       Cu395   2.022       .  S
O389        C399   1.278       .  A
O390       Cu395   2.017   1_565  S
O390        C400   1.277       .  A
O391       Cu396   2.003   1_565  S
O391        C400   1.274       .  A
O392       Cu396   2.010       .  S
O392        C399   1.275       .  A
O393       Cu396   2.014   1_565  S
O393        C398   1.274       .  A
O394       Cu396   2.009       .  S
O394        C397   1.275       .  A
Cu395      Cu396   2.374       .  S
O401       Cu409   2.007   1_554  S
O401        C411   1.275       .  A
O402       Cu409   2.005   1_565  S
O402        C412   1.276       .  A
O403       Cu409   2.013       .  S
O403        C413   1.276       .  A
O404       Cu409   2.006   1_564  S
O404        C414   1.275       .  A
O405       Cu410   2.008   1_564  S
O405        C414   1.276       .  A
O406       Cu410   2.020       .  S
O406        C413   1.278       .  A
O407       Cu410   2.023   1_565  S
O407        C412   1.279       .  A
O408       Cu410   2.016   1_554  S
O408        C411   1.278       .  A
Cu409      Cu410   2.377       .  S
O415       Cu423   2.018       .  S
O415        C425   1.277       .  A
O416       Cu423   2.021   1_554  S
O416        C426   1.278       .  A
O417       Cu423   2.013       .  S
O417        C427   1.277       .  A
O418       Cu423   2.013   1_554  S
O418        C428   1.277       .  A
O419       Cu424   2.010   1_554  S
O419        C428   1.276       .  A
O420       Cu424   2.015       .  S
O420        C427   1.275       .  A
O421       Cu424   2.006   1_554  S
O421        C426   1.275       .  A
O422       Cu424   2.003       .  S
O422        C425   1.273       .  A
Cu423      Cu424   2.375       .  S
O429       Cu437   2.012       .  S
O429        C439   1.276       .  A
O430       Cu437   2.012   1_564  S
O430        C440   1.276       .  A
O431       Cu437   2.008   1_554  S
O431        C441   1.275       .  A
O432       Cu437   2.019   1_565  S
O432        C442   1.277       .  A
O433       Cu438   2.028   1_565  S
O433        C442   1.279       .  A
O434       Cu438   2.008   1_554  S
O434        C441   1.276       .  A
O435       Cu438   2.017   1_564  S
O435        C440   1.278       .  A
O436       Cu438   2.016       .  S
O436        C439   1.278       .  A
Cu437      Cu438   2.376       .  S
O443       Cu451   2.018   1_554  S
O443        C453   1.278       .  A
O444       Cu451   2.017       .  S
O444        C454   1.277       .  A
O445       Cu451   2.008       .  S
O445        C455   1.276       .  A
O446       Cu451   2.016   1_554  S
O446        C456   1.278       .  A
O447       Cu452   2.012   1_554  S
O447        C456   1.276       .  A
O448       Cu452   2.004       .  S
O448        C455   1.274       .  A
O449       Cu452   2.001       .  S
O449        C454   1.273       .  A
O450       Cu452   1.989   1_554  S
O450        C453   1.273       .  A
Cu451      Cu452   2.377       .  S
C457        C458   1.407       .  A
C457        C462   1.407       .  A
C458        C459   1.412       .  A
C458        H463   1.083       .  S
C459        C460   1.414       .  A
C459        O464   1.371       .  S
C460        C461   1.405       .  A
C461        C462   1.396       .  A
C461        H465   1.084       .  S
C462        O466   1.373       .  S
O464        H468   0.992       .  S
O466        H467   0.992       .  S
C469        C470   1.403       .  A
C469        C474   1.406       .  A
C470        C471   1.402       .  A
C470        H475   1.084       .  S
C471        C472   1.408       .  A
C471        O476   1.372       .  S
C472        C473   1.406       .  A
C473        C474   1.400       .  A
C473        H477   1.084       .  S
C474        O478   1.372       .  S
O476        H480   0.990       .  S
O478        H479   0.993       .  S
C481        C482   1.401       .  A
C481        C486   1.410       .  A
C482        C483   1.396       .  A
C482        H487   1.083       .  S
C483        C484   1.410       .  A
C483        O488   1.371       .  S
C484        C485   1.405       .  A
C485        C486   1.404       .  A
C485        H489   1.084   1_554  S
C486        O490   1.371       .  S
O488        H492   0.992       .  S
O490        H491   0.992   1_554  S
C493        C494   1.402       .  A
C493        C498   1.411       .  A
C494        C495   1.396       .  A
C494        H499   1.084       .  S
C495        C496   1.409       .  A
C495        O500   1.372       .  S
C496        C497   1.406       .  A
C497        C498   1.408       .  A
C497        H501   1.084       .  S
C498        O502   1.371       .  S
O500        H504   0.993       .  S
O502        H503   0.991       .  S
C505        C506   1.400       .  A
C505        C510   1.407       .  A
C506        C507   1.400       .  A
C506        H511   1.084       .  S
C507        C508   1.413       .  A
C507        O512   1.371       .  S
C508        C509   1.408       .  A
C509        C510   1.404       .  A
C509        H513   1.083       .  S
C510        O514   1.372       .  S
O512        H516   0.992       .  S
O514        H515   0.992       .  S
C517        C518   1.403       .  A
C517        C522   1.413       .  A
C518        C519   1.397       .  A
C518        H523   1.083       .  S
C519        C520   1.408       .  A
C519        O524   1.372       .  S
C520        C521   1.401       .  A
C521        C522   1.402       .  A
C521        H525   1.084   1_554  S
C522        O526   1.371       .  S
O524        H528   0.992       .  S
O526        H527   0.992       .  S
C529        C530   1.401       .  A
C529        C534   1.410       .  A
C530        C531   1.397       .  A
C530        H535   1.084       .  S
C531        C532   1.410       .  A
C531        O536   1.372       .  S
C532        C533   1.402       .  A
C533        C534   1.400       .  A
C533        H537   1.084       .  S
C534        O538   1.372       .  S
O536        H540   0.992       .  S
O538        H539   0.992       .  S
C541        C542   1.406       .  A
C541        C546   1.412       .  A
C542        C543   1.400       .  A
C542        H547   1.083       .  S
C543        C544   1.406       .  A
C543        O548   1.372       .  S
C544        C545   1.402       .  A
C545        C546   1.401       .  A
C545        H549   1.084   1_554  S
C546        O550   1.371       .  S
O548        H552   0.993       .  S
O550        H551   0.991       .  S
C553        C554   1.406   1_455  A
C553        C558   1.414       .  A
C554        C555   1.395       .  A
C554        H559   1.083       .  S
C555        C556   1.406       .  A
C555        O560   1.372       .  S
C556        C557   1.404   1_655  A
C557        C558   1.408       .  A
C557        H561   1.084       .  S
C558        O562   1.372       .  S
O560        H564   0.991       .  S
O562        H563   0.992       .  S
C565        C566   1.405       .  A
C565        C570   1.413       .  A
C566        C567   1.395       .  A
C566        H571   1.084       .  S
C567        C568   1.408       .  A
C567        O572   1.372       .  S
C568        C569   1.406       .  A
C569        C570   1.410       .  A
C569        H573   1.083       .  S
C570        O574   1.370       .  S
O572        H576   0.991       .  S
O574        H575   0.992       .  S
C577        C578   1.407   1_655  A
C577        C582   1.418       .  A
C578        C579   1.399       .  A
C578        H583   1.083       .  S
C579        C580   1.403   1_455  A
C579        O584   1.370       .  S
C580        C581   1.400       .  A
C581        C582   1.403       .  A
C581        H585   1.084       .  S
C582        O586   1.372       .  S
O584        H588   0.992       .  S
O586        H587   1.000       .  S
C589        C590   1.399       .  A
C589        C594   1.403       .  A
C590        C591   1.400       .  A
C590        H595   1.082       .  S
C591        C592   1.415       .  A
C591        O596   1.372       .  S
C592        C593   1.409       .  A
C593        C594   1.401       .  A
C593        H597   1.083       .  S
C594        O598   1.372       .  S
O596        H600   0.992       .  S
O598        H599   0.991       .  S
C601        C602   1.401       .  A
C601        C606   1.410   1_655  A
C602        C603   1.398       .  A
C602        H607   1.081       .  S
C603        C604   1.410   1_655  A
C603        O608   1.372       .  S
C604        C605   1.403       .  A
C605        C606   1.399       .  A
C605        H609   1.084       .  S
C606        O610   1.372       .  S
O608        H612   0.992       .  S
O610        H611   0.991       .  S
C613        C614   1.405       .  A
C613        C618   1.410       .  A
C614        C615   1.401       .  A
C614        H619   1.084       .  S
C615        C616   1.409       .  A
C615        O620   1.373       .  S
C616        C617   1.402       .  A
C617        C618   1.401       .  A
C617        H621   1.084       .  S
C618        O622   1.372       .  S
O620        H624   0.987   1_554  S
O622        H623   0.993       .  S
C625        C626   1.404       .  A
C625        C630   1.410       .  A
C626        C627   1.393       .  A
C626        H631   1.084       .  S
C627        C628   1.406       .  A
C627        O632   1.372       .  S
C628        C629   1.406       .  A
C629        C630   1.410       .  A
C629        H633   1.083       .  S
C630        O634   1.372       .  S
O632        H636   0.992       .  S
O634        H635   0.992       .  S
C637        C638   1.408       .  A
C637        C642   1.414   1_455  A
C638        C639   1.399       .  A
C638        H643   1.083       .  S
C639        C640   1.404   1_455  A
C639        O644   1.371       .  S
C640        C641   1.401       .  A
C641        C642   1.402       .  A
C641        H645   1.081       .  S
C642        O646   1.371       .  S
O644        H648   0.991       .  S
O646        H647   0.993       .  S
C649        C650   1.406       .  A
C649        C654   1.407       .  A
C650        C651   1.411       .  A
C650        H655   1.083       .  S
C651        C652   1.413       .  A
C651        O656   1.371   1_565  S
C652        C653   1.405       .  A
C653        C654   1.395       .  A
C653        H657   1.084       .  S
C654        O658   1.372       .  S
O656        H660   0.993   1_545  S
O658        H659   0.992       .  S
C661        C662   1.402       .  A
C661        C666   1.412       .  A
C662        C663   1.395       .  A
C662        H667   1.082       .  S
C663        C664   1.406       .  A
C663        O668   1.371       .  S
C664        C665   1.403       .  A
C665        C666   1.403       .  A
C665        H669   1.084       .  S
C666        O670   1.372       .  S
O668        H672   0.991       .  S
O670        H671   0.992       .  S
C673        C674   1.405       .  A
C673        C678   1.407       .  A
C674        C675   1.405       .  A
C674        H679   1.083       .  S
C675        C676   1.409       .  A
C675        O680   1.371   1_565  S
C676        C677   1.405       .  A
C677        C678   1.397       .  A
C677        H681   1.084       .  S
C678        O682   1.372       .  S
O680        H684   0.991       .  S
O682        H683   0.992       .  S
C685        C686   1.405       .  A
C685        C690   1.413       .  A
C686        C687   1.395       .  A
C686        H691   1.083       .  S
C687        C688   1.404       .  A
C687        O692   1.372       .  S
C688        C689   1.402       .  A
C689        C690   1.404       .  A
C689        H693   1.084       .  S
C690        O694   1.371       .  S
O692        H696   0.991       .  S
O694        H695   0.993       .  S
C697        C698   1.403       .  A
C697        C702   1.412       .  A
C698        C699   1.401       .  A
C698        H703   1.084       .  S
C699        C700   1.412       .  A
C699        O704   1.372       .  S
C700        C701   1.402       .  A
C701        C702   1.402       .  A
C701        H705   1.084   1_565  S
C702        O706   1.371       .  S
O704        H708   0.991       .  S
O706        H707   0.992   1_565  S
C709        C710   1.405       .  A
C709        C714   1.412       .  A
C710        C711   1.398       .  A
C710        H715   1.084       .  S
C711        C712   1.408       .  A
C711        O716   1.372       .  S
C712        C713   1.404       .  A
C713        C714   1.404       .  A
C713        H717   1.084       .  S
C714        O718   1.372       .  S
O716        H720   0.992       .  S
O718        H719   0.992       .  S
C721        C722   1.399       .  A
C721        C726   1.403       .  A
C722        C723   1.402       .  A
C722        H727   1.084       .  S
C723        C724   1.415       .  A
C723        O728   1.373       .  S
C724        C725   1.405       .  A
C725        C726   1.400       .  A
C725        H729   1.083       .  S
C726        O730   1.370       .  S
O728        H732   0.991   1_554  S
O730        H731   0.992       .  S
C733        C734   1.408       .  A
C733        C738   1.412       .  A
C734        C735   1.411       .  A
C734        H739   1.083       .  S
C735        C736   1.411       .  A
C735        O740   1.371       .  S
C736        C737   1.401       .  A
C737        C738   1.395       .  A
C737        H741   1.084       .  S
C738        O742   1.372       .  S
O740        H744   0.992       .  S
O742        H743   0.992       .  S
C745        C746   1.407       .  A
C745        C750   1.418       .  A
C746        C747   1.396       .  A
C746        H751   1.083       .  S
C747        C748   1.403       .  A
C747        O752   1.372       .  S
C748        C749   1.401       .  A
C749        C750   1.407       .  A
C749        H753   1.083       .  S
C750        O754   1.372       .  S
O752        H756   0.992       .  S
O754        H755   0.992       .  S
C757        C758   1.404   1_655  A
C757        C762   1.408       .  A
C758        C759   1.401       .  A
C758        H763   1.084       .  S
C759        C760   1.408       .  A
C759        O764   1.372       .  S
C760        C761   1.405   1_455  A
C761        C762   1.401       .  A
C761        H765   1.084       .  S
C762        O766   1.372       .  S
O764        H768   0.992       .  S
O766        H767   0.991       .  S
C769        C770   1.401       .  A
C769        C774   1.406       .  A
C770        C771   1.402       .  A
C770        H775   1.084       .  S
C771        C772   1.415       .  A
C771        O776   1.372       .  S
C772        C773   1.406       .  A
C773        C774   1.398       .  A
C773        H777   1.083       .  S
C774        O778   1.372       .  S
O776        H780   0.992       .  S
O778        H779   0.990       .  S
C781        C782   1.405       .  A
C781        C786   1.414       .  A
C782        C783   1.405       .  A
C782        H787   1.083       .  S
C783        C784   1.408       .  A
C783        O788   1.370       .  S
C784        C785   1.402       .  A
C785        C786   1.406       .  A
C785        H789   1.084       .  S
C786        O790   1.371       .  S
O788        H792   0.991       .  S
O790        H791   0.992       .  S
C793        C794   1.408   1_655  A
C793        C798   1.414       .  A
C794        C795   1.403       .  A
C794        H799   1.083       .  S
C795        C796   1.406       .  A
C795        O800   1.372       .  S
C796        C797   1.400   1_455  A
C797        C798   1.399       .  A
C797        H801   1.084       .  S
C798        O802   1.372       .  S
O800        H804   0.991       .  S
O802        H803   0.991       .  S
C805        C806   1.405       .  A
C805        C810   1.409       .  A
C806        C807   1.402       .  A
C806        H811   1.084       .  S
C807        C808   1.409       .  A
C807        O812   1.372       .  S
C808        C809   1.403       .  A
C809        C810   1.399       .  A
C809        H813   1.084       .  S
C810        O814   1.371       .  S
O812        H816   0.992       .  S
O814        H815   0.992   1_565  S
C817        C818   1.404       .  A
C817        C822   1.413       .  A
C818        C819   1.398       .  A
C818        H823   1.084       .  S
C819        C820   1.409       .  A
C819        O824   1.372       .  S
C820        C821   1.401       .  A
C821        C822   1.402       .  A
C821        H825   1.081       .  S
C822        O826   1.372       .  S
O824        H828   0.991       .  S
O826        H827   0.991       .  S
C829        C830   1.403       .  A
C829        C834   1.403       .  A
C830        C831   1.408       .  A
C830        H835   1.083       .  S
C831        C832   1.415       .  A
C831        O836   1.371       .  S
C832        C833   1.409       .  A
C833        C834   1.397       .  A
C833        H837   1.083       .  S
C834        O838   1.372       .  S
O836        H840   0.992       .  S
O838        H839   0.992       .  S
C841        C842   1.405       .  A
C841        C846   1.405       .  A
C842        C843   1.409       .  A
C842        H847   1.084       .  S
C843        C844   1.412       .  A
C843        O848   1.372       .  S
C844        C845   1.406       .  A
C845        C846   1.394       .  A
C845        H849   1.083       .  S
C846        O850   1.372       .  S
O848        H852   0.992   1_565  S
O850        H851   0.992       .  S
C853        C854   1.404       .  A
C853        C858   1.406       .  A
C854        C855   1.408       .  A
C854        H859   1.084       .  S
C855        C856   1.416       .  A
C855        O860   1.371       .  S
C856        C857   1.407       .  A
C857        C858   1.396       .  A
C857        H861   1.083       .  S
C858        O862   1.372       .  S
O860        H864   0.991       .  S
O862        H863   0.991       .  S
C865        C866   1.406       .  A
C865        C870   1.412       .  A
C866        C867   1.408       .  A
C866        H871   1.083       .  S
C867        C868   1.410       .  A
C867        O872   1.371       .  S
C868        C869   1.401       .  A
C869        C870   1.398       .  A
C869        H873   1.084       .  S
C870        O874   1.370       .  S
O872        H876   0.993       .  S
O874        H875   0.993       .  S
C877        C878   1.406       .  A
C877        C882   1.415       .  A
C878        C879   1.393       .  A
C878        H883   1.083       .  S
C879        C880   1.403       .  A
C879        O884   1.373       .  S
C880        C881   1.403       .  A
C881        C882   1.407       .  A
C881        H885   1.084       .  S
C882        O886   1.372       .  S
O884        H888   0.992       .  S
O886        H887   0.992   1_565  S
C889        C890   1.406       .  A
C889        C894   1.409       .  A
C890        C891   1.408       .  A
C890        H895   1.083       .  S
C891        C892   1.411       .  A
C891        O896   1.371       .  S
C892        C893   1.404       .  A
C893        C894   1.395       .  A
C893        H897   1.084       .  S
C894        O898   1.372       .  S
O896        H900   0.992       .  S
O898        H899   0.992       .  S
C901        C902   1.403       .  A
C901        C906   1.410       .  A
C902        C903   1.403       .  A
C902        H907   1.084       .  S
C903        C904   1.412       .  A
C903        O908   1.372       .  S
C904        C905   1.403       .  A
C905        C906   1.399       .  A
C905        H909   1.084       .  S
C906        O910   1.372       .  S
O908        H912   0.991       .  S
O910        H911   0.991       .  S
C913        C914   1.405       .  A
C913        C918   1.406       .  A
C914        C915   1.410       .  A
C914        H919   1.084       .  S
C915        C916   1.413       .  A
C915        O920   1.371       .  S
C916        C917   1.406       .  A
C917        C918   1.399       .  A
C917        H921   1.084       .  S
C918        O922   1.372       .  S
O920        H924   0.992       .  S
O922        H923   0.992       .  S
C925        C926   1.407       .  A
C925        C930   1.412       .  A
C926        C927   1.402       .  A
C926        H931   1.083       .  S
C927        C928   1.407       .  A
C927        O932   1.372       .  S
C928        C929   1.403       .  A
C929        C930   1.399       .  A
C929        H933   1.084       .  S
C930        O934   1.372       .  S
O932        H936   0.991       .  S
O934        H935   0.992       .  S
C937        C938   1.408       .  A
C937        C942   1.411       .  A
C938        C939   1.409       .  A
C938        H943   1.084       .  S
C939        C940   1.409       .  A
C939        O944   1.371       .  S
C940        C941   1.401       .  A
C941        C942   1.395       .  A
C941        H945   1.084       .  S
C942        O946   1.372       .  S
O944        H948   0.991       .  S
O946        H947   0.992       .  S
C949        C950   1.404       .  A
C949        C954   1.407       .  A
C950        C951   1.398       .  A
C950        H955   1.084       .  S
C951        C952   1.406       .  A
C951        O956   1.371       .  S
C952        C953   1.405       .  A
C953        C954   1.403       .  A
C953        H957   1.084       .  S
C954        O958   1.372       .  S
O956        H960   0.992       .  S
O958        H959   0.992       .  S
C961        C962   1.403   1_655  A
C961        C966   1.406       .  A
C962        C963   1.406       .  A
C962        H967   1.084       .  S
C963        C964   1.414       .  A
C963        O968   1.371       .  S
C964        C965   1.404   1_455  A
C965        C966   1.396       .  A
C965        H969   1.084       .  S
C966        O970   1.372       .  S
O968        H972   0.992       .  S
O970        H971   0.992       .  S
C973        C974   1.406       .  A
C973        C978   1.412       .  A
C974        C975   1.400       .  A
C974        H979   1.084       .  S
C975        C976   1.405       .  A
C975        O980   1.371       .  S
C976        C977   1.402       .  A
C977        C978   1.403       .  A
C977        H981   1.083       .  S
C978        O982   1.370       .  S
O980        H984   0.992       .  S
O982        H983   0.991       .  S
C985        C986   1.403       .  A
C985        C990   1.409   1_455  A
C986        C987   1.400       .  A
C986        H991   1.084       .  S
C987        C988   1.410   1_455  A
C987        O992   1.372       .  S
C988        C989   1.406       .  A
C989        C990   1.402       .  A
C989        H993   1.084       .  S
C990        O994   1.372       .  S
O992        H996   0.992       .  S
O994        H995   0.992       .  S
C997        C998   1.409       .  A
C997       C1002   1.409       .  A
C998        C999   1.411       .  A
C998       H1003   1.083       .  S
C999       C1000   1.409       .  A
C999       O1004   1.371       .  S
C1000      C1001   1.401       .  A
C1001      C1002   1.393       .  A
C1001      H1005   1.084       .  S
C1002      O1006   1.372       .  S
O1004      H1008   0.992       .  S
O1006      H1007   0.993       .  S
C1009      C1010   1.403       .  A
C1009      C1014   1.411       .  A
C1010      C1011   1.397       .  A
C1010      H1015   1.084       .  S
C1011      C1012   1.408       .  A
C1011      O1016   1.372       .  S
C1012      C1013   1.406       .  A
C1013      C1014   1.407       .  A
C1013      H1017   1.084       .  S
C1014      O1018   1.371       .  S
O1016      H1020   0.992       .  S
O1018      H1019   0.990       .  S
C1021      C1022   1.406       .  A
C1021      C1026   1.413       .  A
C1022      C1023   1.397       .  A
C1022      H1027   1.083       .  S
C1023      C1024   1.405       .  A
C1023      O1028   1.372       .  S
C1024      C1025   1.401       .  A
C1025      C1026   1.401       .  A
C1025      H1029   1.083       .  S
C1026      O1030   1.370       .  S
O1028      H1032   0.992       .  S
O1030      H1031   0.992       .  S
