geometry optimzed in LAMMPS
_audit_creation_date              2020-11-30 
_audit_creation_method            'lammps2cif' 
_symmetry_space_group_name_H-M    'P1' 
_symmetry_Int_Tables_number       1 
_symmetry_cell_setting            triclinic 
loop_ 
_symmetry_equiv_pos_as_xyz 
  x,y,z 
_cell_length_a                    33.02100680649447 
_cell_length_b                    36.13969783985404 
_cell_length_c                    26.704090151218537 
_cell_angle_alpha                 88.57809861391168 
_cell_angle_beta                  89.67480705418 
_cell_angle_gamma                 90.64810672301249 
loop_ 
_atom_site_label 
_atom_site_type_symbol 
_atom_site_fract_x 
_atom_site_fract_y 
_atom_site_fract_z 
_atom_site_charge 
C1          C  0.41054493  0.27610102  0.75239337     0.03070
C2          C  0.38922634  0.27689372  0.79798863    -0.13080
C3          C  0.34702003  0.28089122  0.79883152     0.00570
C4          C  0.32646707  0.28564731  0.75303280    -0.11610
C5          C  0.34610334  0.28081637  0.70639972     0.03060
C6          C  0.38873276  0.27600641  0.70714958    -0.11030
H7          H  0.40569428  0.27418038  0.83285162     0.08660
H8          H  0.29489279  0.29291298  0.75459481     0.06180
H9          H  0.40556093  0.27230858  0.67285551     0.06030
C10         C  0.58711289  0.27127484  0.75397320     0.03070
C11         C  0.60879458  0.27569720  0.79853007    -0.13080
C12         C  0.65054519  0.28355003  0.79731652     0.00570
C13         C  0.66988951  0.28861394  0.75046088    -0.11610
C14         C  0.65009850  0.28094041  0.70472762     0.03060
C15         C  0.60837123  0.27134106  0.70807767    -0.11030
H16         H  0.59305191  0.27258045  0.83410781     0.08660
H17         H  0.70100102  0.29793012  0.75100147     0.06180
H18         H  0.59148137  0.26366097  0.67570081     0.06030
C19         C  0.08646717  0.27789927  0.25057298     0.03070
C20         C  0.10734481  0.27033472  0.20611555    -0.13080
C21         C  0.14998365  0.26969818  0.20447387     0.00570
C22         C  0.17128603  0.27277823  0.25003534    -0.11610
C23         C  0.15120307  0.27830025  0.29643795     0.03060
C24         C  0.10870381  0.28320915  0.29468702    -0.11030
H25         H  0.09014121  0.26603385  0.17228917     0.08660
H26         H  0.20378716  0.27143395  0.24856699     0.06180
H27         H  0.09224317  0.29194381  0.32709334     0.06030
C28         C  0.90926262  0.27397285  0.24983276     0.03070
C29         C  0.88869227  0.27077458  0.20410577    -0.13080
C30         C  0.84599068  0.27181767  0.20187506     0.00570
C31         C  0.82398408  0.27290377  0.24718703    -0.11610
C32         C  0.84360523  0.27630162  0.29364814     0.03060
C33         C  0.88641970  0.27743936  0.29410911    -0.11030
H34         H  0.90621226  0.26755196  0.17014108     0.08660
H35         H  0.79131367  0.27170943  0.24609528     0.06180
H36         H  0.90225067  0.28166132  0.32893068     0.06030
C37         C  0.24606985  0.10604161  0.04265975     0.03070
C38         C  0.27033679  0.09612930  0.08369614    -0.13080
C39         C  0.28291170  0.05969888  0.09068991     0.00570
C40         C  0.26530809  0.03169125  0.06311405    -0.11610
C41         C  0.24093449  0.04050273  0.02181205     0.03060
C42         C  0.23145811  0.07797971  0.01142349    -0.11030
H43         H  0.28495950  0.11759678  0.10507072     0.08660
H44         H  0.27711525  0.00388893  0.06748619     0.06180
H45         H  0.21716223  0.08543788  0.97625354     0.06030
C46         C  0.24056775  0.28971457  0.01545772     0.00500
C47         C  0.25884658  0.26222731  0.98877574     0.00500
C48         C  0.24270562  0.44728849  0.96879059     0.03070
C49         C  0.26439993  0.47684438  0.99028653    -0.13080
C50         C  0.25141999  0.51377009  0.98295120     0.00570
C51         C  0.21847982  0.52090305  0.95139482    -0.11610
C52         C  0.19577593  0.49179047  0.93238334     0.03060
C53         C  0.20853443  0.45556310  0.93990027    -0.11030
H54         H  0.28915625  0.47127175  0.01564097     0.08660
H55         H  0.20685794  0.54877565  0.94763881     0.06180
H56         H  0.18993183  0.43348063  0.92528315     0.06030
C57         C  0.74391154  0.26308724  0.98172395     0.00500
C58         C  0.75689589  0.29032928  0.01329023     0.00500
C59         C  0.74725716  0.10790770  0.04096664     0.03070
C60         C  0.72068092  0.10012047  0.08104397    -0.13080
C61         C  0.70918579  0.06364076  0.09317395     0.00570
C62         C  0.72817251  0.03452322  0.06945889    -0.11610
C63         C  0.75360507  0.04153387  0.02795230     0.03060
C64         C  0.76413575  0.07848999  0.01469406    -0.11030
H65         H  0.70455645  0.12261297  0.09810286     0.08660
H66         H  0.71636796  0.00667877  0.07621360     0.06180
H67         H  0.78054412  0.08435358  0.98008730     0.06030
C68         C  0.74625088  0.44716737  0.96126088     0.03070
C69         C  0.73834314  0.47533460  0.99552177    -0.13080
C70         C  0.74469777  0.51296690  0.98174549     0.00570
C71         C  0.76010445  0.52195875  0.93397046    -0.11610
C72         C  0.77462686  0.49405263  0.90368497     0.03060
C73         C  0.76207580  0.45756789  0.91393968    -0.11030
H74         H  0.73210319  0.46834422  0.03434874     0.08660
H75         H  0.76954698  0.55026749  0.92536682     0.06180
H76         H  0.77094403  0.43622510  0.88860902     0.06030
O77         O  0.53647861  0.03507151  0.29977109    -0.74490
O78         O  0.45311407  0.02028934  0.20436163    -0.74520
O79         O  0.53639159  0.02046587  0.20296970    -0.74570
O80         O  0.45384821  0.03519816  0.30097774    -0.74620
O81         O  0.45469867  0.09578356  0.28234284    -0.74550
O82         O  0.53598268  0.08094806  0.18369481    -0.74530
O83         O  0.45373132  0.08091487  0.18573420    -0.74510
O84         O  0.53802841  0.09554269  0.28044208    -0.74570
Ni85       Ni  0.49494395  0.02556570  0.25267087     1.25410
Ni86       Ni  0.49564462  0.09049515  0.23249203     1.25360
C87         C  0.55288628  0.06713601  0.30293785     0.87690
C88         C  0.43803885  0.04858168  0.18200702     0.87620
C89         C  0.55116777  0.04881363  0.17932186     0.87650
C90         C  0.43880378  0.06749240  0.30483087     0.87820
C91         C  0.25328294  0.11450557  0.46147815     0.03070
C92         C  0.27435563  0.10839419  0.41694591    -0.13080
C93         C  0.28419711  0.07255719  0.40360011     0.00570
C94         C  0.26533557  0.04245861  0.42835904    -0.11610
C95         C  0.24520699  0.04757970  0.47407656     0.03060
C96         C  0.23821666  0.08400367  0.48991737    -0.11030
H97         H  0.28865200  0.13168171  0.39716407     0.08660
H98         H  0.27352904  0.01474767  0.41776449     0.06180
H99         H  0.22589706  0.08833947  0.52698614     0.06030
C100        C  0.23141838  0.45032775  0.53806676     0.03070
C101        C  0.20906365  0.46039896  0.58040133    -0.13080
C102        C  0.19982245  0.49746511  0.58843151     0.00570
C103        C  0.21772456  0.52522858  0.55840120    -0.11610
C104        C  0.24186056  0.51633073  0.51725641     0.03060
C105        C  0.24831941  0.47876661  0.50695720    -0.11030
H106        H  0.19600947  0.43934182  0.60525496     0.08660
H107        H  0.20881020  0.55366776  0.56369910     0.06180
H108        H  0.26385129  0.47196488  0.47263454     0.06030
C109        C  0.25904639  0.26870490  0.51525290     0.00500
C110        C  0.24358970  0.29565063  0.48361726     0.00500
C111        C  0.74479367  0.26337486  0.51918249     0.00500
C112        C  0.75757141  0.29000288  0.48490630     0.00500
C113        C  0.74022609  0.11086287  0.45510795     0.03070
C114        C  0.72229599  0.10351033  0.40902523    -0.13080
C115        C  0.70830810  0.06787466  0.39896318     0.00570
C116        C  0.72322829  0.03784501  0.42704838    -0.11610
C117        C  0.74394276  0.04398520  0.47180965     0.03060
C118        C  0.75245064  0.08069310  0.48559596    -0.11030
H119        H  0.71353915  0.12629007  0.38458193     0.08660
H120        H  0.71220828  0.01022625  0.41918703     0.06180
H121        H  0.76430329  0.08545354  0.52263222     0.06030
C122        C  0.76172585  0.44649461  0.52633004     0.03070
C123        C  0.78367889  0.45555811  0.56906198    -0.13080
C124        C  0.79479734  0.49214775  0.57734567     0.00570
C125        C  0.77776106  0.52064400  0.54890418    -0.11610
C126        C  0.75383080  0.51279307  0.50720052     0.03060
C127        C  0.74624315  0.47532436  0.49547282    -0.11030
H128        H  0.79604550  0.43385646  0.59295020     0.08660
H129        H  0.78835275  0.54874687  0.55458245     0.06180
H130        H  0.73148993  0.46876929  0.46061467     0.06030
O131        O  0.95003745  0.53495929  0.80826378    -0.74490
O132        O  0.03515135  0.54131908  0.71031781    -0.74520
O133        O  0.95241655  0.54035817  0.70896241    -0.74570
O134        O  0.03246437  0.53745170  0.81030657    -0.74620
O135        O  0.03374250  0.47575125  0.80766939    -0.74550
O136        O  0.95328141  0.47862498  0.70554127    -0.74530
O137        O  0.03575445  0.47952115  0.70838530    -0.74510
O138        O  0.95095275  0.47326405  0.80435674    -0.74570
Ni139      Ni  0.99254357  0.54076255  0.75960287     1.25410
Ni140      Ni  0.99350864  0.47456195  0.75643944     1.25360
C141        C  0.93471194  0.50299302  0.81908255     0.87690
C142        C  0.05062733  0.51108900  0.69547268     0.87620
C143        C  0.93800271  0.50994234  0.69311087     0.87650
C144        C  0.04805981  0.50651646  0.82313531     0.87820
C145        C  0.40488117  0.76730167  0.25045943     0.03070
C146        C  0.38294796  0.76910933  0.29570818    -0.13080
C147        C  0.34053916  0.77376560  0.29613125     0.00570
C148        C  0.32057881  0.77795005  0.24967700    -0.11610
C149        C  0.34150251  0.77485701  0.20361811     0.03060
C150        C  0.38375438  0.76915906  0.20479458    -0.11030
H151        H  0.39917884  0.76705682  0.33079872     0.08660
H152        H  0.28890013  0.78511012  0.24908548     0.06180
H153        H  0.40057226  0.76658954  0.17016672     0.06030
C154        C  0.58224652  0.77002345  0.25157499     0.03070
C155        C  0.60439307  0.76758796  0.20649572    -0.13080
C156        C  0.64718818  0.76924277  0.20589626     0.00570
C157        C  0.66745424  0.77307054  0.25187368    -0.11610
C158        C  0.64616068  0.77517769  0.29764878     0.03060
C159        C  0.60351369  0.77292771  0.29700126    -0.11030
H160        H  0.58811809  0.76526945  0.17157630     0.08660
H161        H  0.69994945  0.77521239  0.25208310     0.06180
H162        H  0.58667212  0.77458687  0.33180488     0.06030
C163        C  0.08184340  0.77891582  0.75120391     0.03070
C164        C  0.10420432  0.77800156  0.70611466    -0.13080
C165        C  0.14684653  0.77975725  0.70615318     0.00570
C166        C  0.16670803  0.78369820  0.75239699    -0.11610
C167        C  0.14533929  0.78161682  0.79842084     0.03060
C168        C  0.10269028  0.77915036  0.79710279    -0.11030
H169        H  0.08822915  0.77557825  0.67099451     0.08660
H170        H  0.19914547  0.78808519  0.75273852     0.06180
H171        H  0.08546572  0.77698853  0.83166848     0.06030
C172        C  0.90501634  0.77627658  0.75082549     0.03070
C173        C  0.88375506  0.77981078  0.79614701    -0.13080
C174        C  0.84178581  0.78633349  0.79653373     0.00570
C175        C  0.82163373  0.79021664  0.75006992    -0.11610
C176        C  0.84152541  0.78423049  0.70372455     0.03060
C177        C  0.88346225  0.77652980  0.70552667    -0.11030
H178        H  0.90003246  0.77715419  0.83112836     0.08660
H179        H  0.78998304  0.79741462  0.75075526     0.06180
H180        H  0.90006827  0.76975772  0.67215626     0.06030
C181        C  0.25616384  0.95035994  0.52656761     0.03070
C182        C  0.23667142  0.98097417  0.50340452    -0.13080
C183        C  0.25048979  0.01744223  0.51180995     0.00570
C184        C  0.28135083  0.02326368  0.54652804    -0.11610
C185        C  0.30159696  0.99346851  0.56810258     0.03060
C186        C  0.28901145  0.95751463  0.55831613    -0.11030
H187        H  0.21214016  0.97710355  0.47759211     0.08660
H188        H  0.29333098  0.05096326  0.55181669     0.06180
H189        H  0.30624301  0.93492272  0.57451486     0.06030
C190        C  0.25452082  0.79284608  0.48784202     0.00500
C191        C  0.23766063  0.76474261  0.51761659     0.00500
C192        C  0.24851755  0.61217323  0.46056968     0.03070
C193        C  0.25915990  0.58189114  0.49156423    -0.13080
C194        C  0.24824611  0.54557333  0.47816207     0.00570
C195        C  0.22883173  0.54009720  0.43240583    -0.11610
C196        C  0.21508554  0.57039425  0.40407628     0.03060
C197        C  0.22824196  0.60595843  0.41570562    -0.11030
H198        H  0.27101366  0.58683150  0.52859635     0.08660
H199        H  0.21697013  0.51284074  0.42404356     0.06180
H200        H  0.21640146  0.62956377  0.39488038     0.06030
C201        C  0.25334226  0.60726390  0.04080680     0.03070
C202        C  0.26640585  0.57893143  0.00919666    -0.13080
C203        C  0.25800421  0.54136067  0.02207246     0.00570
C204        C  0.23764051  0.53278660  0.06708130    -0.11610
C205        C  0.22014230  0.56082062  0.09421758     0.03060
C206        C  0.23097757  0.59764274  0.08405261    -0.11030
H207        H  0.27845881  0.58616153  0.97237866     0.08660
H208        H  0.22696037  0.50462679  0.07435084     0.06180
H209        H  0.21633063  0.61916202  0.10496807     0.06030
C210        C  0.24595168  0.94722502  0.96367298     0.03070
C211        C  0.22844716  0.97655415  0.99006849    -0.13080
C212        C  0.24220106  0.01340290  0.98142900     0.00570
C213        C  0.27113897  0.02088742  0.94385568    -0.11610
C214        C  0.29006887  0.99192453  0.91990888     0.03060
C215        C  0.27811424  0.95558471  0.93080226    -0.11030
H216        H  0.20679042  0.97073375  0.01988317     0.08660
H217        H  0.28321452  0.04875316  0.93844127     0.06180
H218        H  0.29577022  0.93346134  0.91530372     0.06030
C219        C  0.23501586  0.76262140  0.98692848     0.00500
C220        C  0.24938806  0.79074105  0.01654696     0.00500
C221        C  0.75277662  0.76309229  0.98610247     0.00500
C222        C  0.73859593  0.78995621  0.01762444     0.00500
C223        C  0.74285970  0.94741146  0.97255018     0.03070
C224        C  0.76250910  0.97656605  0.99768447    -0.13080
C225        C  0.75057046  0.01366333  0.98870617     0.00570
C226        C  0.72136092  0.02136038  0.95214370    -0.11610
C227        C  0.69916745  0.99257553  0.93188640     0.03060
C228        C  0.70954621  0.95617206  0.94255298    -0.11030
H229        H  0.78479867  0.97061054  0.02622170     0.08660
H230        H  0.71125225  0.04951602  0.94551968     0.06180
H231        H  0.69000616  0.93446302  0.92870166     0.06030
C232        C  0.76022028  0.60658533  0.03816177     0.03070
C233        C  0.74060884  0.57817166  0.01217424    -0.13080
C234        C  0.75171820  0.54086292  0.02048139     0.00570
C235        C  0.78144779  0.53242150  0.05614887    -0.11610
C236        C  0.80190683  0.56053057  0.08059179     0.03060
C237        C  0.78984969  0.59724536  0.07358751    -0.11030
H238        H  0.72011653  0.58527704  0.98196851     0.08660
H239        H  0.79304027  0.50450861  0.05942008     0.06180
H240        H  0.80657055  0.61899994  0.09197280     0.06030
O241        O  0.05060051  0.57552413  0.18961473    -0.74490
O242        O  0.96419170  0.59259250  0.28001469    -0.74520
O243        O  0.04655719  0.59237377  0.28508980    -0.74570
O244        O  0.96861659  0.57556856  0.18410360    -0.74620
O245        O  0.96588215  0.51541481  0.20527992    -0.74550
O246        O  0.04474083  0.53211453  0.30607534    -0.74530
O247        O  0.96281134  0.53240840  0.30164056    -0.74510
O248        O  0.04891605  0.51516018  0.20992521    -0.74570
Ni249      Ni  0.00747743  0.58616453  0.23395432     1.25410
Ni250      Ni  0.00547832  0.52154637  0.25642703     1.25360
C251        C  0.06565928  0.54316767  0.18767289     0.87690
C252        C  0.94833272  0.56497095  0.30391758     0.87620
C253        C  0.06031759  0.56449511  0.30967574     0.87650
C254        C  0.95275630  0.54332573  0.18010536     0.87820
C255        C  0.75499574  0.61075058  0.45855960     0.03070
C256        C  0.78597598  0.60646536  0.42307667    -0.13080
C257        C  0.79851416  0.57176577  0.40896169     0.00570
C258        C  0.78043438  0.53998414  0.42974556    -0.11610
C259        C  0.75222151  0.54282293  0.46862347     0.03060
C260        C  0.73757378  0.57822668  0.48086067    -0.11030
H261        H  0.80319426  0.63024179  0.40890494     0.08660
H262        H  0.79349829  0.51333572  0.42173496     0.06180
H263        H  0.71502779  0.57981196  0.50998045     0.06030
C264        C  0.73797949  0.94880442  0.53516055     0.03070
C265        C  0.75120350  0.97747794  0.50191440    -0.13080
C266        C  0.74116712  0.01459702  0.51121372     0.00570
C267        C  0.71680934  0.02233998  0.55265643    -0.11610
C268        C  0.70113507  0.99385142  0.58298165     0.03060
C269        C  0.71457065  0.95777657  0.57702431    -0.11030
H270        H  0.76584598  0.97084561  0.46694603     0.08660
H271        H  0.70461428  0.04987924  0.55658495     0.06180
H272        H  0.70174775  0.93582090  0.60081895     0.06030
C273        C  0.73282437  0.79313593  0.48760930     0.00500
C274        C  0.75220715  0.76578130  0.51515075     0.00500
O275        O  0.45621853  0.97815500  0.70333336    -0.74490
O276        O  0.53983422  0.97299660  0.79970390    -0.74520
O277        O  0.45764088  0.97164981  0.80241418    -0.74570
O278        O  0.53763457  0.97983475  0.70038010    -0.74620
O279        O  0.53845944  0.04140501  0.70630064    -0.74550
O280        O  0.45715449  0.03330498  0.80773553    -0.74530
O281        O  0.53947210  0.03459102  0.80567225    -0.74510
O282        O  0.45600563  0.03981320  0.70777469    -0.74570
Ni283      Ni  0.49786467  0.97346066  0.75138458     1.25410
Ni284      Ni  0.49769786  0.03955309  0.75714399     1.25360
C285        C  0.44148025  0.00958001  0.69101387     0.87690
C286        C  0.55488716  0.00305103  0.81611518     0.87620
C287        C  0.44280984  0.00127208  0.81970040     0.87650
C288        C  0.55248690  0.01167573  0.68832575     0.87820
C289        C  0.66012803  0.02687841  0.64568217    -0.26380
C290        C  0.66251642  0.00008797  0.60882859    -0.14450
C291        C  0.62699730  0.98182761  0.59282429     0.36180
C292        C  0.59053107  0.98793954  0.61757566    -0.25830
C293        C  0.58852982  0.01293463  0.65650068    -0.15070
C294        C  0.62321439  0.03359809  0.66988408     0.37260
N295        N  0.62123437  0.06012425  0.70908254    -0.89320
H296        H  0.68723622  0.04190638  0.65618637     0.18380
H297        H  0.56361100  0.97253913  0.60720570     0.18370
N298        N  0.62809649  0.95720242  0.55141530    -0.88350
H299        H  0.64938716  0.07310232  0.71368238     0.35750
H300        H  0.61489162  0.04577206  0.74270231     0.40840
H301        H  0.63658417  0.97272084  0.51946311     0.40460
H302        H  0.59932757  0.94616693  0.54441726     0.35350
C303        C  0.70147466  0.89015915  0.51942613    -0.26380
C304        C  0.73872311  0.90928096  0.52113962    -0.14450
C305        C  0.77472962  0.88971080  0.51243546     0.36180
C306        C  0.77251974  0.85185069  0.50216630    -0.25830
C307        C  0.73520579  0.83256568  0.50291008    -0.15070
C308        C  0.69934518  0.85212466  0.51145915     0.37260
N309        N  0.66075090  0.83331088  0.51138150    -0.89320
H310        H  0.67366908  0.90492306  0.52508591     0.18380
H311        H  0.80001313  0.83767182  0.49251392     0.18370
N312        N  0.81377236  0.90718685  0.51491460    -0.88350
H313        H  0.63718330  0.85194019  0.51654076     0.35750
H314        H  0.66000376  0.81508767  0.54236055     0.40840
H315        H  0.81670031  0.91904653  0.55003410     0.40460
H316        H  0.81563627  0.92817705  0.48740402     0.35350
C317        C  0.75085012  0.67811470  0.43750640    -0.26380
C318        C  0.74676566  0.64963740  0.47444958    -0.14450
C319        C  0.74467535  0.66025643  0.52521615     0.36180
C320        C  0.74596949  0.69783365  0.53681545    -0.25830
C321        C  0.75257810  0.72586734  0.49996433    -0.15070
C322        C  0.75876942  0.71487110  0.44998982     0.37260
N323        N  0.77554364  0.73934104  0.41168910    -0.89320
H324        H  0.75277208  0.67122342  0.39830443     0.18380
H325        H  0.74281363  0.70472223  0.57568921     0.18370
N326        N  0.74315266  0.63414195  0.56638223    -0.88350
H327        H  0.80091062  0.72646774  0.39664177     0.35750
H328        H  0.78727548  0.76330443  0.42743463     0.40840
H329        H  0.76679698  0.61538183  0.56301784     0.40460
H330        H  0.71514409  0.62050715  0.56676147     0.35350
C331        C  0.90963541  0.56163517  0.38258186    -0.26380
C332        C  0.91078683  0.56985411  0.33125479    -0.14450
C333        C  0.87515315  0.57911269  0.30515979     0.36180
C334        C  0.83819491  0.57825015  0.33095733    -0.25830
C335        C  0.83694947  0.56943991  0.38214135    -0.15070
C336        C  0.87294637  0.56254964  0.40877988     0.37260
N337        N  0.87213339  0.55816687  0.46240484    -0.89320
H338        H  0.93740498  0.55500275  0.40214498     0.18380
H339        H  0.81039640  0.58482600  0.31144148     0.18370
N340        N  0.87653421  0.58797026  0.25236969    -0.88350
H341        H  0.90126924  0.55362797  0.47623536     0.35750
H342        H  0.85513645  0.53442058  0.47116861     0.40840
H343        H  0.89233201  0.61303746  0.24753580     0.40460
H344        H  0.84737912  0.59241120  0.23853992     0.35350
C345        C  0.84399871  0.52771139  0.14430780    -0.26380
C346        C  0.84148914  0.55246504  0.10332136    -0.14450
C347        C  0.87720560  0.56808221  0.08218107     0.36180
C348        C  0.91416021  0.56224783  0.10596125    -0.25830
C349        C  0.91636619  0.54001286  0.14937378    -0.15070
C350        C  0.88132846  0.52118385  0.16772709     0.37260
N351        N  0.88332465  0.49699922  0.21120911    -0.89320
H352        H  0.81662623  0.51456340  0.15902302     0.18380
H353        H  0.94123603  0.57613531  0.09154636     0.18370
N354        N  0.87572808  0.58992126  0.03666949    -0.88350
H355        H  0.85496021  0.48496081  0.21899507     0.35750
H356        H  0.89050035  0.51307422  0.24195336     0.40840
H357        H  0.86487887  0.57284087  0.00864617     0.40460
H358        H  0.90472694  0.59884333  0.02555873     0.35350
C359        C  0.66255082  0.98508753  0.85392461    -0.26380
C360        C  0.66283164  0.99933305  0.90209414    -0.14450
C361        C  0.62727522  0.01505838  0.92211758     0.36180
C362        C  0.59271085  0.01695590  0.89227392    -0.25830
C363        C  0.59222544  0.00153588  0.84473886    -0.15070
C364        C  0.62778084  0.98567492  0.82493301     0.37260
N365        N  0.63019515  0.96995671  0.77598849    -0.89320
H366        H  0.68963557  0.97254210  0.83904057     0.18380
H367        H  0.56542851  0.02908583  0.90720212     0.18370
N368        N  0.62436688  0.02789216  0.97260828    -0.88350
H369        H  0.65242023  0.98469843  0.75550524     0.35750
H370        H  0.60355063  0.97299670  0.75590464     0.40840
H371        H  0.65068875  0.02301897  0.99289380     0.40460
H372        H  0.60167217  0.01228177  0.99100454     0.35350
C373        C  0.78912827  0.70456827  0.99861477    -0.26380
C374        C  0.75207647  0.72288854  0.00043471    -0.14450
C375        C  0.71633828  0.70203142  0.01058819     0.36180
C376        C  0.71897570  0.66390051  0.02258618    -0.25830
C377        C  0.75653862  0.64605387  0.02200933    -0.15070
C378        C  0.79146869  0.66642012  0.00699391     0.37260
N379        N  0.82914182  0.64803391  0.99887765    -0.89320
H380        H  0.81650064  0.72007197  0.98906968     0.18380
H381        H  0.69174151  0.64825182  0.03223142     0.18370
N382        N  0.67749727  0.71906206  0.00715084    -0.88350
H383        H  0.85195175  0.66691620  0.98795769     0.35750
H384        H  0.82500155  0.63033927  0.96889578     0.40840
H385        H  0.66263919  0.71505360  0.04157435     0.40460
H386        H  0.66072979  0.70532293  0.98005943     0.35350
C387        C  0.73674598  0.84418885  0.95712864    -0.26380
C388        C  0.74536342  0.83044358  0.00541296    -0.14450
C389        C  0.75941381  0.85576348  0.04158081     0.36180
C390        C  0.76093582  0.89379579  0.02986261    -0.25830
C391        C  0.75131987  0.90727544  0.98171130    -0.15070
C392        C  0.74335464  0.88141267  0.94385298     0.37260
N393        N  0.74108153  0.89323326  0.89208767    -0.89320
H394        H  0.72496420  0.82583325  0.92920138     0.18380
H395        H  0.76807384  0.91277990  0.05934539     0.18370
N396        N  0.77229666  0.84396312  0.09050867    -0.88350
H397        H  0.73519087  0.87076556  0.86919418     0.35750
H398        H  0.76964132  0.90365384  0.88160211     0.40840
H399        H  0.79347020  0.82289959  0.08683017     0.40460
H400        H  0.74743675  0.83403605  0.11123212     0.35350
C401        C  0.36043092  0.01521243  0.91547289    -0.26380
C402        C  0.32771052  0.99817601  0.89129501    -0.14450
C403        C  0.33369356  0.98193747  0.84426950     0.36180
C404        C  0.37244386  0.98188199  0.82368287    -0.25830
C405        C  0.40508777  0.99865625  0.84793009    -0.15070
C406        C  0.39916401  0.01588625  0.89416683     0.37260
N407        N  0.43170605  0.03252395  0.92156713    -0.89320
H408        H  0.35622856  0.02666085  0.95224131     0.18380
H409        H  0.37679950  0.96983536  0.78724571     0.18370
N410        N  0.30120583  0.96611508  0.81588682    -0.88350
H411        H  0.42633500  0.06094541  0.92269718     0.35750
H412        H  0.45965686  0.02916295  0.90393322     0.40840
H413        H  0.27293855  0.97094939  0.83196328     0.40460
H414        H  0.30532509  0.93748263  0.81551623     0.35350
C415        C  0.23163236  0.89505865  0.02522032    -0.26380
C416        C  0.23710392  0.90723942  0.97525116    -0.14450
C417        C  0.24208142  0.88015301  0.93807828     0.36180
C418        C  0.24970104  0.84354477  0.95272701    -0.25830
C419        C  0.24366753  0.83097601  0.00239493    -0.15070
C420        C  0.23326495  0.85724682  0.03865116     0.37260
N421        N  0.22515949  0.84585018  0.08950165    -0.89320
H422        H  0.22753766  0.91485115  0.05453826     0.18380
H423        H  0.25928884  0.82469983  0.92427713     0.18370
N424        N  0.24023996  0.88890588  0.88523889    -0.88350
H425        H  0.24577806  0.85942633  0.11249360     0.35750
H426        H  0.19602750  0.85445501  0.09890705     0.40840
H427        H  0.22847120  0.91531435  0.87909841     0.40460
H428        H  0.21873657  0.87112184  0.86975568     0.35350
C429        C  0.17804979  0.53785407  0.16536162    -0.26380
C430        C  0.18029459  0.55295204  0.11680736    -0.14450
C431        C  0.14423920  0.55934298  0.08930828     0.36180
C432        C  0.10696025  0.55314120  0.11273946    -0.25830
C433        C  0.10454816  0.53965839  0.16209338    -0.15070
C434        C  0.14056111  0.53082349  0.18850798     0.37260
N435        N  0.14075507  0.51681345  0.23938737    -0.89320
H436        H  0.20565425  0.53222820  0.18582956     0.18380
H437        H  0.07948246  0.55992123  0.09258112     0.18370
N438        N  0.14396824  0.57188701  0.03774350    -0.88350
H439        H  0.15423203  0.49077861  0.23940229     0.35750
H440        H  0.11170741  0.51267656  0.25381695     0.40840
H441        H  0.17289917  0.57393563  0.02217458     0.40460
H442        H  0.13152879  0.59835501  0.03637292     0.35350
C443        C  0.27987105  0.70820354  0.00787357    -0.26380
C444        C  0.24083476  0.72272080  0.00108024    -0.14450
C445        C  0.20699008  0.69861097  0.00412744     0.36180
C446        C  0.21274939  0.66089885  0.01426903    -0.25830
C447        C  0.25144138  0.64642474  0.02289572    -0.15070
C448        C  0.28560944  0.67036386  0.01910054     0.37260
N449        N  0.32613938  0.65770698  0.02770994    -0.89320
H450        H  0.30608175  0.72639696  0.00430201     0.18380
H451        H  0.18656235  0.64267750  0.01704258     0.18370
N452        N  0.16671093  0.71268350  0.99775108    -0.88350
H453        H  0.34230918  0.66146043  0.99416252     0.35750
H454        H  0.32666808  0.62945230  0.03664906     0.40840
H455        H  0.16103009  0.73059436  0.02704412     0.40460
H456        H  0.14516061  0.69131316  0.00094718     0.35350
C457        C  0.13041446  0.58700023  0.31203923    -0.26380
C458        C  0.09819136  0.56855049  0.33687669    -0.14450
C459        C  0.10476321  0.54930624  0.38231976     0.36180
C460        C  0.14374842  0.54903838  0.40238017    -0.25830
C461        C  0.17639992  0.56688524  0.37715597    -0.15070
C462        C  0.16971899  0.58577443  0.33128488     0.37260
N463        N  0.20286661  0.60330046  0.30442953    -0.89320
H464        H  0.12528518  0.60072817  0.27610886     0.18380
H465        H  0.14839105  0.53568420  0.43864650     0.18370
N466        N  0.07182176  0.53040594  0.40790856    -0.88350
H467        H  0.19271410  0.61600452  0.27127815     0.35750
H468        H  0.22273615  0.58250424  0.29396069     0.40840
H469        H  0.05098885  0.55038412  0.41846853     0.40460
H470        H  0.08189094  0.51748085  0.44095247     0.35350
C471        C  0.20692840  0.70403448  0.49877124    -0.26380
C472        C  0.24231018  0.72515096  0.50457130    -0.14450
C473        C  0.28033362  0.70786324  0.50129679     0.36180
C474        C  0.28233188  0.67041064  0.48844604    -0.25830
C475        C  0.24679199  0.64992416  0.48039145    -0.15070
C476        C  0.20870941  0.66651510  0.48758060     0.37260
N477        N  0.17196507  0.64513475  0.48272592    -0.89320
H478        H  0.17771153  0.71702853  0.50289482     0.18380
H479        H  0.31155345  0.65753381  0.48392017     0.18370
N480        N  0.31674317  0.72810077  0.51150543    -0.88350
H481        H  0.14658288  0.66148815  0.48887324     0.35750
H482        H  0.17180820  0.62456725  0.51097645     0.40840
H483        H  0.33549599  0.72715443  0.47989331     0.40460
H484        H  0.33148549  0.71457517  0.54114370     0.35350
C485        C  0.40904783  0.98844413  0.61497440    -0.26380
C486        C  0.40660178  0.00998343  0.65773179    -0.14450
C487        C  0.36958617  0.02704874  0.67041111     0.36180
C488        C  0.33629423  0.02250620  0.63904124    -0.25830
C489        C  0.33846526  0.99990993  0.59731672    -0.15070
C490        C  0.37531917  0.98304260  0.58462793     0.37260
N491        N  0.37820726  0.96010879  0.54151700    -0.89320
H492        H  0.43730573  0.97508294  0.60588091     0.18380
H493        H  0.30780077  0.03517054  0.64880650     0.18370
N494        N  0.36367213  0.04733564  0.71557431    -0.88350
H495        H  0.40727011  0.94919529  0.53827041     0.35750
H496        H  0.37385910  0.97696267  0.50976726     0.40840
H497        H  0.38914553  0.04729108  0.73830901     0.40460
H498        H  0.34098533  0.03364495  0.73659370     0.35350
C499        C  0.25162399  0.88469332  0.55647677    -0.26380
C500        C  0.24647093  0.91050891  0.51654836    -0.14450
C501        C  0.24086803  0.89652739  0.46781273     0.36180
C502        C  0.24086987  0.85824823  0.46083419    -0.25830
C503        C  0.24996014  0.83300997  0.50003948    -0.15070
C504        C  0.25731176  0.84694818  0.54811404     0.37260
N505        N  0.27298208  0.82348237  0.58753568    -0.89320
H506        H  0.25531674  0.89451251  0.59419694     0.18380
H507        H  0.23581337  0.84821482  0.42344446     0.18370
N508        N  0.23772580  0.91989793  0.42397403    -0.88350
H509        H  0.27715428  0.83819791  0.62035206     0.35750
H510        H  0.30156916  0.81460305  0.57630888     0.40840
H511        H  0.26186701  0.93886965  0.42287517     0.40460
H512        H  0.21009925  0.93356910  0.42463520     0.35350
C513        C  0.77610990  0.77520255  0.65506160    -0.26380
C514        C  0.81806394  0.78366904  0.65458594    -0.14450
C515        C  0.83658600  0.79028581  0.60679116     0.36180
C516        C  0.81478897  0.78308781  0.56261167    -0.25830
C517        C  0.77326065  0.77455365  0.56365566    -0.15070
C518        C  0.75340223  0.77223168  0.61082370     0.37260
N519        N  0.71041787  0.76606581  0.61557562    -0.89320
H520        H  0.76020870  0.76992125  0.69000943     0.18380
H521        H  0.83020363  0.78507491  0.52671567     0.18370
N522        N  0.87690613  0.80546991  0.60264639    -0.88350
H523        H  0.70567262  0.74082446  0.63481589     0.35750
H524        H  0.69666349  0.76373999  0.58074756     0.40840
H525        H  0.87645132  0.83187918  0.61774513     0.40460
H526        H  0.88564148  0.80896570  0.56511230     0.35350
C527        C  0.81043249  0.79335348  0.93558066    -0.26380
C528        C  0.77452739  0.77196292  0.93696362    -0.14450
C529        C  0.76001403  0.75786505  0.89130236     0.36180
C530        C  0.78185833  0.76406050  0.84672958    -0.25830
C531        C  0.81800240  0.78503806  0.84500399    -0.15070
C532        C  0.83129230  0.80144021  0.89016873     0.37260
N533        N  0.86481735  0.82716867  0.89141198    -0.89320
H534        H  0.82185619  0.80468443  0.97000164     0.18380
H535        H  0.77075953  0.75127313  0.81311673     0.18370
N536        N  0.72278489  0.73730479  0.88869727    -0.88350
H537        H  0.85426310  0.85143788  0.90727446     0.35750
H538        H  0.87386167  0.83530624  0.85527809     0.40840
H539        H  0.69974455  0.75276843  0.90475941     0.40460
H540        H  0.72573887  0.71232699  0.90868302     0.35350
C541        C  0.17720882  0.79090003  0.93645613    -0.26380
C542        C  0.21239678  0.76926111  0.93832468    -0.14450
C543        C  0.22558475  0.75256419  0.89379854     0.36180
C544        C  0.20309096  0.75691141  0.84945614    -0.25830
C545        C  0.16814753  0.77878716  0.84715107    -0.15070
C546        C  0.15572701  0.79651719  0.89131613     0.37260
N547        N  0.12205043  0.82111025  0.89040230    -0.89320
H548        H  0.16659003  0.80388247  0.97014792     0.18380
H549        H  0.21293728  0.74271920  0.81638467     0.18370
N550        N  0.26210774  0.73127935  0.89364751    -0.88350
H551        H  0.13231018  0.84711142  0.90150073     0.35750
H552        H  0.10077831  0.81135569  0.91686592     0.40840
H553        H  0.28620749  0.74932882  0.90099608     0.40460
H554        H  0.26756261  0.72062738  0.85823485     0.35350
C555        C  0.15933500  0.79749553  0.61511744    -0.26380
C556        C  0.17049158  0.77655038  0.65807626    -0.14450
C557        C  0.20239872  0.75088999  0.65317150     0.36180
C558        C  0.22369835  0.74880608  0.60786723    -0.25830
C559        C  0.21350277  0.77037507  0.56528703    -0.15070
C560        C  0.17962444  0.79388820  0.56857757     0.37260
N561        N  0.16530249  0.81327294  0.52465497    -0.89320
H562        H  0.13415354  0.81632351  0.61765020     0.18380
H563        H  0.24848237  0.72948658  0.60576412     0.18370
N564        N  0.21235186  0.72463991  0.69217671    -0.88350
H565        H  0.14007092  0.82918440  0.53327002     0.35750
H566        H  0.15560947  0.79346840  0.49934679     0.40840
H567        H  0.18590694  0.71085823  0.70425219     0.40460
H568        H  0.22551157  0.73822662  0.72204082     0.35350
C569        C  0.01546046  0.74941288  0.77551703    -0.26380
C570        C  0.03654090  0.77850068  0.75048479    -0.14450
C571        C  0.01386897  0.80639287  0.72532345     0.36180
C572        C  0.97137796  0.80372849  0.72483373    -0.25830
C573        C  0.95027165  0.77484809  0.75011477    -0.15070
C574        C  0.97283798  0.74696907  0.77536569     0.37260
N575        N  0.95390220  0.71550219  0.80031455    -0.89320
H576        H  0.03239158  0.72788240  0.79474463     0.18380
H577        H  0.95447091  0.82538077  0.70579517     0.18370
N578        N  0.03247448  0.83840854  0.70121095    -0.88350
H579        H  0.96440912  0.69175901  0.78307887     0.35750
H580        H  0.92260148  0.71526057  0.79533231     0.40840
H581        H  0.06367144  0.83936760  0.70678351     0.40460
H582        H  0.02120117  0.86181105  0.71856183     0.35350
C583        C  0.65890044  0.75643225  0.38770338    -0.26380
C584        C  0.66832495  0.77993092  0.34620444    -0.14450
C585        C  0.69752584  0.80846332  0.35280343     0.36180
C586        C  0.71793537  0.81116454  0.39841836    -0.25830
C587        C  0.70964490  0.78703422  0.43950635    -0.15070
C588        C  0.67840666  0.76021116  0.43444881     0.37260
N589        N  0.66616076  0.73725126  0.47666677    -0.89320
H590        H  0.63583933  0.73516465  0.38375121     0.18380
H591        H  0.74067123  0.83279847  0.40180387     0.18370
N592        N  0.70549190  0.83674508  0.31532937    -0.88350
H593        H  0.64328261  0.71869786  0.46654964     0.35750
H594        H  0.65362315  0.75438294  0.50343014     0.40840
H595        H  0.67800981  0.84789372  0.30333776     0.40460
H596        H  0.72077198  0.82567035  0.28506213     0.35350
C597        C  0.65596637  0.79508951  0.11850207    -0.26380
C598        C  0.67012647  0.77125774  0.15683929    -0.14450
C599        C  0.70562145  0.75057463  0.14704894     0.36180
C600        C  0.72737714  0.75661811  0.10200517    -0.25830
C601        C  0.71348918  0.78104082  0.06415090    -0.15070
C602        C  0.67645860  0.79947039  0.07225661     0.37260
N603        N  0.65991251  0.82300896  0.03347006    -0.89320
H604        H  0.62876242  0.81083377  0.12477726     0.18380
H605        H  0.75559936  0.74220413  0.09686360     0.18370
N606        N  0.71923694  0.72169131  0.18038457    -0.88350
H607        H  0.63275217  0.83469418  0.04522810     0.35750
H608        H  0.65285067  0.80634240  0.00321563     0.40840
H609        H  0.73069409  0.73287374  0.21300184     0.40460
H610        H  0.69479238  0.70403124  0.18924800     0.35350
C611        C  0.28072724  0.76054878  0.15009574    -0.26380
C612        C  0.31898080  0.77786147  0.15460806    -0.14450
C613        C  0.33442696  0.79847442  0.11266698     0.36180
C614        C  0.31214428  0.80022411  0.06766811    -0.25830
C615        C  0.27382895  0.78321034  0.06346613    -0.15070
C616        C  0.25790791  0.76365430  0.10568757     0.37260
N617        N  0.21776066  0.74839111  0.10457086    -0.89320
H618        H  0.26799281  0.74488606  0.18163595     0.18380
H619        H  0.32413288  0.81620066  0.03594986     0.18370
N620        N  0.37185548  0.81890723  0.11632148    -0.88350
H621        H  0.20080457  0.76050333  0.13285244     0.35750
H622        H  0.21949979  0.72002789  0.11290223     0.40840
H623        H  0.36763744  0.83938425  0.14276649     0.40460
H624        H  0.37888772  0.83262540  0.08238866     0.35350
C625        C  0.33451682  0.79949084  0.38244315    -0.26380
C626        C  0.31808233  0.77693943  0.34525294    -0.14450
C627        C  0.28158809  0.75718361  0.35685289     0.36180
C628        C  0.26146786  0.76253303  0.40274170    -0.25830
C629        C  0.27782308  0.78533013  0.43977628    -0.15070
C630        C  0.31550093  0.80321607  0.42950638     0.37260
N631        N  0.33445253  0.82522967  0.46708919    -0.89320
H632        H  0.36259022  0.81442142  0.37478528     0.18380
H633        H  0.23258767  0.74873458  0.40925421     0.18370
N634        N  0.26513519  0.72998765  0.32427854    -0.88350
H635        H  0.36166591  0.83688199  0.45368646     0.35750
H636        H  0.34194091  0.80744080  0.49698975     0.40840
H637        H  0.25473687  0.74279265  0.29149888     0.40460
H638        H  0.28787514  0.71129237  0.31546873     0.35350
C639        C  0.47108995  0.79654462  0.27171181    -0.26380
C640        C  0.45027560  0.76648545  0.25101406    -0.14450
C641        C  0.47328412  0.73765309  0.23009034     0.36180
C642        C  0.51595729  0.74003158  0.23015072    -0.25830
C643        C  0.53678125  0.77009844  0.25100321    -0.15070
C644        C  0.51365732  0.79923819  0.27109186     0.37260
N645        N  0.53189692  0.83251203  0.28972576    -0.89320
H646        H  0.45391340  0.81902000  0.28713981     0.18380
H647        H  0.53312637  0.71763431  0.21453585     0.18370
N648        N  0.45474184  0.70525209  0.20943446    -0.88350
H649        H  0.52046908  0.85481783  0.26872296     0.35750
H650        H  0.56307361  0.83342170  0.28350357     0.40840
H651        H  0.42333905  0.70527901  0.21369708     0.40460
H652        H  0.46476962  0.68228929  0.23027193     0.35350
C653        C  0.82888940  0.51465526  0.65274999    -0.26380
C654        C  0.83197584  0.49963018  0.60527897    -0.14450
C655        C  0.87075771  0.49256646  0.58454999     0.36180
C656        C  0.90499150  0.49715418  0.61396036    -0.25830
C657        C  0.90180074  0.51058170  0.66219774    -0.15070
C658        C  0.86348948  0.52117006  0.68121190     0.37260
N659        N  0.85809670  0.53740576  0.72936164    -0.89320
H660        H  0.79936566  0.52122727  0.66788033     0.18380
H661        H  0.93445825  0.49020026  0.59894065     0.18370
N662        N  0.87693275  0.48207153  0.53358343    -0.88350
H663        H  0.84557158  0.56357992  0.72342987     0.35750
H664        H  0.88552130  0.54183402  0.74729429     0.40840
H665        H  0.84969868  0.47924906  0.51452378     0.40460
H666        H  0.89152428  0.45658302  0.53374564     0.35350
C667        C  0.71243690  0.21170992  0.47562456    -0.26380
C668        C  0.74437467  0.22371310  0.50545927    -0.14450
C669        C  0.77284581  0.19744344  0.52342809     0.36180
C670        C  0.77122735  0.16121531  0.50589329    -0.25830
C671        C  0.74022530  0.14949746  0.47405378    -0.15070
C672        C  0.70857444  0.17459489  0.46239209     0.37260
N673        N  0.67173786  0.16218210  0.43930468    -0.89320
H674        H  0.68942657  0.23125651  0.46414643     0.18380
H675        H  0.79472200  0.14219386  0.51731469     0.18370
N676        N  0.80271818  0.20595937  0.56048590    -0.88350
H677        H  0.65160566  0.18403781  0.43398807     0.35750
H678        H  0.65762993  0.14321370  0.46414430     0.40840
H679        H  0.80804445  0.23429172  0.56065424     0.40460
H680        H  0.83039425  0.19490295  0.54942112     0.35350
C681        C  0.79365101  0.34797442  0.50133042    -0.26380
C682        C  0.75641743  0.32998531  0.49633709    -0.14450
C683        C  0.72075030  0.35118726  0.49482730     0.36180
C684        C  0.72281367  0.38938933  0.50398939    -0.25830
C685        C  0.76023628  0.40702712  0.51179108    -0.15070
C686        C  0.79610308  0.38594597  0.50753341     0.37260
N687        N  0.83567448  0.40231075  0.50637106    -0.89320
H688        H  0.82143393  0.33236715  0.49907840     0.18380
H689        H  0.69518501  0.40525651  0.50495046     0.18370
N690        N  0.68286773  0.33461162  0.48174378    -0.88350
H691        H  0.84249361  0.41238859  0.54150817     0.35750
H692        H  0.83627605  0.42352904  0.47906709     0.40840
H693        H  0.67275140  0.34777939  0.44891078     0.40460
H694        H  0.66197815  0.34013403  0.51008434     0.35350
C695        C  0.13092820  0.52270855  0.59470306    -0.26380
C696        C  0.16408146  0.50612617  0.61912945    -0.14450
C697        C  0.15988900  0.49352247  0.66933614     0.36180
C698        C  0.12221489  0.49596407  0.69278109    -0.25830
C699        C  0.08898384  0.51170170  0.66803283    -0.15070
C700        C  0.09334741  0.52576288  0.61858947     0.37260
N701        N  0.06014763  0.54100749  0.59054694    -0.89320
H702        H  0.13367129  0.53169348  0.55576697     0.18380
H703        H  0.11881005  0.48541476  0.73098025     0.18370
N704        N  0.19303157  0.47858662  0.69774914    -0.88350
H705        H  0.06713539  0.56879422  0.58232402     0.35750
H706        H  0.03332074  0.54058818  0.61139186     0.40840
H707        H  0.22036633  0.48075638  0.67803152     0.40460
H708        H  0.18698672  0.45044953  0.70459854     0.35350
C709        C  0.20682769  0.34736947  0.52175642    -0.26380
C710        C  0.24228451  0.33501840  0.49894292    -0.14450
C711        C  0.27296207  0.36110692  0.48615986     0.36180
C712        C  0.26938987  0.39792502  0.50081329    -0.25830
C713        C  0.23412007  0.41047776  0.52420875    -0.15070
C714        C  0.20148427  0.38495578  0.53215496     0.37260
N715        N  0.16237643  0.39734810  0.54820547    -0.89320
H716        H  0.18233514  0.32779365  0.52932415     0.18380
H717        H  0.29436832  0.41688327  0.49291266     0.18370
N718        N  0.30695691  0.35118983  0.45622911    -0.88350
H719        H  0.14182836  0.37518638  0.55163825     0.35750
H720        H  0.15128048  0.41508465  0.52009032     0.40840
H721        H  0.33317591  0.36006427  0.47425658     0.40460
H722        H  0.30546818  0.36646134  0.42252888     0.35350
C723        C  0.29224699  0.20964577  0.49456538    -0.26380
C724        C  0.25620224  0.22845500  0.50372509    -0.14450
C725        C  0.21945835  0.20779751  0.50686927     0.36180
C726        C  0.21906245  0.17026063  0.49383151    -0.25830
C727        C  0.25501916  0.15223243  0.48199485    -0.15070
C728        C  0.29234423  0.17176457  0.48575538     0.37260
N729        N  0.33096264  0.15392314  0.48265341    -0.89320
H730        H  0.32099115  0.22415976  0.49549414     0.18380
H731        H  0.19065288  0.15499480  0.49291574     0.18370
N732        N  0.18295536  0.22438643  0.52447561    -0.88350
H733        H  0.34430218  0.16153746  0.44827053     0.35750
H734        H  0.32816522  0.12514066  0.48470775     0.40840
H735        H  0.18641157  0.22927436  0.56250767     0.40460
H736        H  0.15842439  0.20599762  0.52180504     0.35350
C737        C  0.59728830  0.04877976  0.37274954    -0.26380
C738        C  0.59175347  0.06997680  0.32893188    -0.14450
C739        C  0.62498915  0.08915002  0.30662468     0.36180
C740        C  0.66349921  0.08548688  0.32789593    -0.25830
C741        C  0.66914415  0.06472237  0.37236991    -0.15070
C742        C  0.63514980  0.04708627  0.39590668     0.37260
N743        N  0.63858917  0.02885315  0.44418056    -0.89320
H744        H  0.57159159  0.03418335  0.38963872     0.18380
H745        H  0.68914093  0.09974457  0.31041767     0.18370
N746        N  0.61968750  0.11208944  0.26241919    -0.88350
H747        H  0.61081771  0.01716626  0.45557872     0.35750
H748        H  0.64562365  0.04906610  0.47019476     0.40840
H749        H  0.61135708  0.09498249  0.23325731     0.40460
H750        H  0.64707065  0.12479660  0.25154293     0.35350
C751        C  0.39474504  0.05317402  0.37772541    -0.26380
C752        C  0.40009581  0.07110214  0.33124831    -0.14450
C753        C  0.36673548  0.08781915  0.30707483     0.36180
C754        C  0.32835264  0.08552196  0.32980815    -0.25830
C755        C  0.32292708  0.06779844  0.37663909    -0.15070
C756        C  0.35698320  0.05217987  0.40127250     0.37260
N757        N  0.35483801  0.03677937  0.45115918    -0.89320
H758        H  0.42030537  0.04026070  0.39620344     0.18380
H759        H  0.30270752  0.09851359  0.31166353     0.18370
N760        N  0.37161020  0.10581117  0.25874012    -0.88350
H761        H  0.33607580  0.01336302  0.45153810     0.35750
H762        H  0.34298255  0.05649609  0.47497002     0.40840
H763        H  0.38875287  0.12992012  0.26365223     0.40460
H764        H  0.34361704  0.11433375  0.24474561     0.35350
C765        C  0.86449068  0.48050387  0.81761724    -0.26380
C766        C  0.89469452  0.50039899  0.84253344    -0.14450
C767        C  0.88492011  0.52070309  0.88474292     0.36180
C768        C  0.84490832  0.51984829  0.90244824    -0.25830
C769        C  0.81413495  0.50003812  0.87753292    -0.15070
C770        C  0.82403989  0.48113908  0.83362128     0.37260
N771        N  0.79306248  0.46293218  0.80536649    -0.89320
H772        H  0.87222407  0.46591670  0.78393636     0.18380
H773        H  0.83824731  0.53355251  0.93708051     0.18370
N774        N  0.91586095  0.54131860  0.90991321    -0.88350
H775        H  0.80551249  0.45044624  0.77400384     0.35750
H776        H  0.77340328  0.48330676  0.79189814     0.40840
H777        H  0.93661894  0.52234911  0.92458773     0.40460
H778        H  0.90366452  0.55512950  0.94025489     0.35350
C779        C  0.63507384  0.06841078  0.08686531    -0.26380
C780        C  0.66863043  0.05672966  0.11493672    -0.14450
C781        C  0.66266922  0.03754908  0.16083256     0.36180
C782        C  0.62297453  0.03198701  0.17889522    -0.25830
C783        C  0.58963341  0.04601027  0.15226834    -0.15070
C784        C  0.59558889  0.06374756  0.10531144     0.37260
N785        N  0.56167015  0.07665635  0.07643484    -0.89320
H786        H  0.63978785  0.08178929  0.05063485     0.18380
H787        H  0.61820990  0.01906958  0.21556530     0.18370
N788        N  0.69680610  0.02565636  0.18996210    -0.88350
H789        H  0.57130756  0.08648888  0.04112689     0.35750
H790        H  0.54953063  0.09941034  0.09434817     0.40840
H791        H  0.71145338  0.00503772  0.17023211     0.40460
H792        H  0.68710664  0.01338652  0.22389104     0.35350
C793        C  0.71211174  0.20094297  0.99169408    -0.26380
C794        C  0.74735316  0.22272867  0.99509370    -0.14450
C795        C  0.78428096  0.20535108  0.00781149     0.36180
C796        C  0.78408892  0.16734956  0.02138882    -0.25830
C797        C  0.74828082  0.14619174  0.01975924    -0.15070
C798        C  0.71235817  0.16300739  0.00218176     0.37260
N799        N  0.67575973  0.14235594  0.99341969    -0.89320
H800        H  0.68390285  0.21352463  0.98014901     0.18380
H801        H  0.81176210  0.15428330  0.03382540     0.18370
N802        N  0.82166371  0.22607862  0.00674818    -0.88350
H803        H  0.65555073  0.14753700  0.02262006     0.35750
H804        H  0.68104680  0.11396186  0.99271076     0.40840
H805        H  0.82724200  0.23482698  0.96976757     0.40460
H806        H  0.84582198  0.20920497  0.01733226     0.35350
C807        C  0.78094639  0.38619169  0.96024448    -0.26380
C808        C  0.74781137  0.40708197  0.97698024    -0.14450
C809        C  0.71713130  0.38854175  0.00570673     0.36180
C810        C  0.72117088  0.35079654  0.01797413    -0.25830
C811        C  0.75301684  0.33009642  0.99841804    -0.15070
C812        C  0.78254412  0.34782557  0.96801502     0.37260
N813        N  0.81467932  0.32692260  0.94623198    -0.89320
H814        H  0.80574775  0.39967264  0.94005196     0.18380
H815        H  0.69846368  0.33712961  0.04159408     0.18370
N816        N  0.68066200  0.40635164  0.02076940    -0.88350
H817        H  0.83486638  0.34437714  0.92637076     0.35750
H818        H  0.80163060  0.30964322  0.91992500     0.40840
H819        H  0.66793212  0.41965751  0.98951117     0.40460
H820        H  0.68717372  0.42564746  0.04798796     0.35350
C821        C  0.08578995  0.48263437  0.89572411    -0.26380
C822        C  0.08473106  0.50641950  0.85362120    -0.14450
C823        C  0.11972242  0.52773175  0.83976201     0.36180
C824        C  0.15489422  0.52377919  0.86795178    -0.25830
C825        C  0.15647900  0.49865437  0.90838721    -0.15070
C826        C  0.12118984  0.47898694  0.92390967     0.37260
N827        N  0.12157238  0.45540060  0.96808903    -0.89320
H828        H  0.05891908  0.46677841  0.90647227     0.18380
H829        H  0.18195340  0.53908801  0.85646980     0.18370
N830        N  0.12177050  0.55241217  0.79660372    -0.88350
H831        H  0.09317182  0.44294141  0.97418340     0.35750
H832        H  0.12708006  0.47218187  0.99870529     0.40840
H833        H  0.09585754  0.55129831  0.77481681     0.40460
H834        H  0.14524675  0.54357398  0.77351631     0.35350
C835        C  0.25705049  0.35481486  0.03866561    -0.26380
C836        C  0.24639153  0.32985497  0.00115128    -0.14450
C837        C  0.23795701  0.34406836  0.95276364     0.36180
C838        C  0.24329367  0.38185560  0.94204120    -0.25830
C839        C  0.25064469  0.40728421  0.98015811    -0.15070
C840        C  0.25738821  0.39337589  0.02939326     0.37260
N841        N  0.26197618  0.41810732  0.07036149    -0.89320
H842        H  0.26265907  0.34421560  0.07626918     0.18380
H843        H  0.23785945  0.39173290  0.90405150     0.18370
N844        N  0.22053198  0.32104827  0.91549510    -0.88350
H845        H  0.26684521  0.40331334  0.10389501     0.35750
H846        H  0.23451956  0.43183174  0.07472530     0.40840
H847        H  0.23858099  0.32340355  0.88324167     0.40460
H848        H  0.19198685  0.33144071  0.90649852     0.35350
C849        C  0.39642323  0.06051030  0.10752717    -0.25420
C850        C  0.39961277  0.04503468  0.15567572    -0.14450
C851        C  0.36462753  0.03199506  0.18153524     0.36180
C852        C  0.32654672  0.03664136  0.15936917    -0.25830
C853        C  0.32326693  0.05330816  0.11181599    -0.15070
C854        C  0.35880746  0.06399503  0.08460072     0.37260
N855        N  0.35817004  0.07804636  0.03372293    -0.89320
H856        H  0.42340010  0.07036645  0.08779668     0.18380
H857        H  0.29933535  0.02800929  0.17953110     0.18370
N858        N  0.36770154  0.01635837  0.23138521    -0.88350
H859        H  0.36833436  0.10553780  0.03365224     0.35750
H860        H  0.32922585  0.07770302  0.01836967     0.40840
H861        H  0.38263861  0.99113156  0.22883947     0.40460
H862        H  0.33895080  0.01023208  0.24620821     0.35350
C863        C  0.28525634  0.16277415  0.02050768    -0.26380
C864        C  0.24706417  0.14558738  0.02590789    -0.14450
C865        C  0.21198738  0.16707910  0.01889987     0.36180
C866        C  0.21595664  0.20508304  0.00715725    -0.25830
C867        C  0.25439054  0.22226943  0.00364440    -0.15070
C868        C  0.28931945  0.20076204  0.01059768     0.37260
N869        N  0.32890393  0.21775569  0.00825603    -0.89320
H870        H  0.31229600  0.14652301  0.02547600     0.18380
H871        H  0.18898650  0.22131881  0.00092346     0.18370
N872        N  0.17222123  0.15135961  0.02483042    -0.88350
H873        H  0.35147718  0.19796630  0.01328432     0.35750
H874        H  0.33116149  0.23555783  0.03838861     0.40840
H875        H  0.16988795  0.13929785  0.06074225     0.40460
H876        H  0.16848472  0.13064106  0.99863531     0.35350
C877        C  0.83509787  0.26153671  0.38559479    -0.26380
C878        C  0.81973418  0.27841869  0.34180070    -0.14450
C879        C  0.78274664  0.29788442  0.34553141     0.36180
C880        C  0.76153043  0.29800522  0.39161571    -0.25830
C881        C  0.77741082  0.28158901  0.43543494    -0.15070
C882        C  0.81549485  0.26444166  0.43213715     0.37260
N883        N  0.83617076  0.25225661  0.47618858    -0.89320
H884        H  0.86344404  0.24679797  0.38434905     0.18380
H885        H  0.73338019  0.31297598  0.39407475     0.18370
N886        N  0.76780661  0.31922458  0.30356427    -0.88350
H887        H  0.86304214  0.26766689  0.47872411     0.35750
H888        H  0.84413836  0.22465794  0.47135232     0.40840
H889        H  0.78887197  0.34042426  0.29567406     0.40460
H890        H  0.74059225  0.33203572  0.31264038     0.35350
C891        C  0.81701414  0.30017730  0.06801867    -0.26380
C892        C  0.77892860  0.28302808  0.06193571    -0.14450
C893        C  0.76279427  0.26169766  0.10293616     0.36180
C894        C  0.78634016  0.25621777  0.14643644    -0.25830
C895        C  0.82419283  0.27409037  0.15250452    -0.15070
C896        C  0.83894215  0.29687388  0.11259599     0.37260
N897        N  0.87533100  0.31840331  0.11767340    -0.89320
H898        H  0.83002533  0.31729323  0.03831491     0.18380
H899        H  0.77398932  0.23885535  0.17655321     0.18370
N900        N  0.72232580  0.24653590  0.10297356    -0.88350
H901        H  0.86817651  0.34633977  0.11241413     0.35750
H902        H  0.89540877  0.31119001  0.08920778     0.40840
H903        H  0.70627186  0.25574186  0.07164232     0.40460
H904        H  0.70694890  0.25731565  0.13357841     0.35350
C905        C  0.21653664  0.29037029  0.34458219    -0.26380
C906        C  0.17482980  0.28048054  0.34549637    -0.14450
C907        C  0.15741570  0.27258709  0.39383256     0.36180
C908        C  0.17981714  0.27905967  0.43738526    -0.25830
C909        C  0.22140162  0.28714697  0.43588719    -0.15070
C910        C  0.24011905  0.29161429  0.38859004     0.37260
N911        N  0.28303314  0.29806476  0.38525397    -0.89320
H912        H  0.23154384  0.29753364  0.30965406     0.18380
H913        H  0.16418777  0.27742314  0.47298476     0.18370
N914        N  0.11857916  0.25508022  0.40105113    -0.88350
H915        H  0.29235852  0.30096339  0.34787654     0.35750
H916        H  0.29724368  0.27448837  0.39988855     0.40840
H917        H  0.11223870  0.23681813  0.37233639     0.40460
H918        H  0.09634804  0.27517804  0.40468224     0.35350
C919        C  0.15594780  0.29123909  0.11462901    -0.26380
C920        C  0.17192329  0.26990573  0.15459030    -0.14450
C921        C  0.20952108  0.25204357  0.14638697     0.36180
C922        C  0.23163984  0.25956129  0.10192052    -0.25830
C923        C  0.21579012  0.28145861  0.06248039    -0.15070
C924        C  0.17659656  0.29633634  0.06894785     0.37260
N925        N  0.15637968  0.31635001  0.02959645    -0.89320
H926        H  0.12730227  0.30512742  0.11902434     0.18380
H927        H  0.26128735  0.24744976  0.09788477     0.18370
N928        N  0.22512037  0.22436681  0.18039067    -0.88350
H929        H  0.17143769  0.34144822  0.02230875     0.35750
H930        H  0.15658446  0.30047892  0.99740270     0.40840
H931        H  0.20338609  0.21542547  0.20664870     0.40460
H932        H  0.24982855  0.23580421  0.19907407     0.35350
C933        C  0.01983142  0.25460584  0.28391336    -0.26380
C934        C  0.04107769  0.27915762  0.25128446    -0.14450
C935        C  0.01847396  0.30284219  0.21892750     0.36180
C936        C  0.97589015  0.29998684  0.21861230    -0.25830
C937        C  0.95470602  0.27519636  0.25092800    -0.15070
C938        C  0.97711344  0.25226920  0.28400864     0.37260
N939        N  0.95648010  0.22600386  0.31673528    -0.89320
H940        H  0.03680590  0.23639684  0.30865203     0.18380
H941        H  0.95906306  0.31813296  0.19361943     0.18370
N942        N  0.03731210  0.33064640  0.18675142    -0.88350
H943        H  0.97721799  0.21127629  0.33869599     0.35750
H944        H  0.94189560  0.20671400  0.29430877     0.40840
H945        H  0.06841909  0.33257401  0.19278514     0.40460
H946        H  0.02581119  0.35628154  0.19677164     0.35350
C947        C  0.71676592  0.27800525  0.65637173    -0.26380
C948        C  0.67392039  0.28066965  0.65531378    -0.14450
C949        C  0.65587857  0.28185258  0.60668846     0.36180
C950        C  0.67934504  0.27465073  0.56403081    -0.25830
C951        C  0.72164759  0.27264810  0.56587000    -0.15070
C952        C  0.74055285  0.27697914  0.61245197     0.37260
N953        N  0.78382872  0.28020055  0.61545837    -0.89320
H954        H  0.73284547  0.27642523  0.69129050     0.18380
H955        H  0.66426873  0.27230365  0.52834270     0.18370
N956        N  0.61542204  0.29415408  0.59759418    -0.88350
H957        H  0.79308125  0.28315130  0.65252825     0.35750
H958        H  0.79250669  0.30457349  0.59620901     0.40840
H959        H  0.60610600  0.31278796  0.62451089     0.40460
H960        H  0.59596449  0.27126616  0.59520210     0.35350
C961        C  0.68655924  0.29328719  0.93316776    -0.26380
C962        C  0.72198557  0.27194002  0.93325313    -0.14450
C963        C  0.73375147  0.25534592  0.88809309     0.36180
C964        C  0.71030827  0.26052180  0.84468720    -0.25830
C965        C  0.67535622  0.28243041  0.84428845    -0.15070
C966        C  0.66408124  0.29987920  0.88926492     0.37260
N967        N  0.63107478  0.32534789  0.89177996    -0.89320
H968        H  0.67558360  0.30450460  0.96773229     0.18380
H969        H  0.71896931  0.24647958  0.81094733     0.18370
N970        N  0.76882536  0.23217275  0.88673983    -0.88350
H971        H  0.60756109  0.31239310  0.91217752     0.35750
H972        H  0.62023784  0.33267243  0.85633405     0.40840
H973        H  0.79424834  0.24901018  0.89210822     0.40460
H974        H  0.77232769  0.22073656  0.85142959     0.35350
C975        C  0.34210878  0.28995675  0.61169520    -0.26380
C976        C  0.32251971  0.28051674  0.65747902    -0.14450
C977        C  0.28126339  0.26901691  0.65475560     0.36180
C978        C  0.26085437  0.26952146  0.60859250    -0.25830
C979        C  0.28088123  0.27751445  0.56314669    -0.15070
C980        C  0.32279035  0.28670950  0.56503410     0.37260
N981        N  0.34777769  0.29001886  0.52091920    -0.89320
H982        H  0.37343242  0.29894923  0.61129620     0.18380
H983        H  0.22936718  0.26121263  0.60829573     0.18370
N984        N  0.26019092  0.25416234  0.69783368    -0.88350
H985        H  0.36193464  0.31599809  0.52063644     0.35750
H986        H  0.33080461  0.28812434  0.48829944     0.40840
H987        H  0.25104571  0.22706036  0.69041046     0.40460
H988        H  0.23421009  0.26987210  0.70333763     0.35350
C989        C  0.33765811  0.29651879  0.88990009    -0.26380
C990        C  0.32408216  0.27781409  0.84737394    -0.14450
C991        C  0.29016451  0.25393622  0.85252286     0.36180
C992        C  0.26980480  0.25027026  0.89857100    -0.25830
C993        C  0.28272002  0.26924775  0.94105681    -0.15070
C994        C  0.31823077  0.29182565  0.93689521     0.37260
N995        N  0.33626566  0.30930682  0.97927241    -0.89320
H996        H  0.36426343  0.31427953  0.88693743     0.18380
H997        H  0.24347162  0.23212763  0.90118097     0.18370
N998        N  0.27703622  0.23211257  0.81148953    -0.88350
H999        H  0.36573929  0.29933068  0.98280887     0.35750
H1000       H  0.32157854  0.30141163  0.01255302     0.40840
H1001       H  0.24676506  0.23837104  0.80419503     0.40460
H1002       H  0.27841727  0.20420255  0.82255483     0.35350
C1003       C  0.47566345  0.24472489  0.73217823    -0.26380
C1004       C  0.45578706  0.27517848  0.75247297    -0.14450
C1005       C  0.47951000  0.30367699  0.77387000     0.36180
C1006       C  0.52180365  0.30034024  0.77549445    -0.25830
C1007       C  0.54179939  0.27004773  0.75508082    -0.15070
C1008       C  0.51816090  0.24149191  0.73367594     0.37260
N1009       N  0.53584356  0.20855253  0.71425702    -0.89320
H1010       H  0.45785938  0.22268482  0.71605328     0.18380
H1011       H  0.53949094  0.32257511  0.79138461     0.18370
N1012       N  0.46216767  0.33689259  0.79306516    -0.88350
H1013       H  0.52350885  0.18594062  0.73448617     0.35750
H1014       H  0.56691924  0.20771366  0.72084590     0.40840
H1015       H  0.43109729  0.33818690  0.78677583     0.40460
H1016       H  0.47472671  0.35933342  0.77268966     0.35350
loop_ 
_geom_bond_atom_site_label_1 
_geom_bond_atom_site_label_2 
_geom_bond_distance 
_geom_bond_site_symmetry_2 
_ccdc_geom_bond_type 
C1            C2   1.404       .  A
C1            C6   1.410       .  A
C1         C1004   1.495       .  S
C2            C3   1.403       .  A
C2            H7   1.084       .  S
C3            C4   1.410       .  A
C3          C990   1.499       .  S
C4            C5   1.416       .  A
C4            H8   1.079       .  S
C5            C6   1.421       .  A
C5          C976   1.525       .  S
C6            H9   1.080       .  S
C10          C11   1.404       .  A
C10          C15   1.409       .  A
C10        C1007   1.497       .  S
C11          C12   1.404       .  A
C11          H16   1.083       .  S
C12          C13   1.409       .  A
C12         C965   1.502       .  S
C13          C14   1.420       .  A
C13          H17   1.078       .  S
C14          C15   1.419       .  A
C14         C948   1.533       .  S
C15          H18   1.072       .  S
C19          C20   1.404       .  A
C19          C24   1.408       .  A
C19         C934   1.500       .  S
C20          C21   1.409       .  A
C20          H25   1.083       .  S
C21          C22   1.415       .  A
C21         C920   1.513       .  S
C22          C23   1.422       .  A
C22          H26   1.075       .  S
C23          C24   1.417       .  A
C23         C906   1.532       .  S
C24          H27   1.075       .  S
C28          C29   1.407       .  A
C28          C33   1.408       .  A
C28         C937   1.501       .  S
C29          C30   1.413       .  A
C29          H34   1.082       .  S
C30          C31   1.410       .  A
C30         C895   1.507       .  S
C31          C32   1.410       .  A
C31          H35   1.080       .  S
C32          C33   1.414       .  A
C32         C878   1.508       .  S
C33          H36   1.083       .  S
C37          C38   1.403       .  A
C37          C42   1.412       .  A
C37         C864   1.487       .  S
C38          C39   1.393       .  A
C38          H43   1.085       .  S
C39          C40   1.390       .  A
C39         C853   1.468       .  S
C40          C41   1.401       .  A
C40          H44   1.086       .  S
C41          C42   1.415       .  A
C41         C212   1.475   1_554  S
C42          H45   1.083   1_554  S
C46          C47   1.379   1_554  D
C46         C836   1.501       .  S
C46         C923   1.516       .  S
C47         C867   1.494   1_556  S
C47         C993   1.509       .  S
C48          C49   1.415       .  A
C48          C53   1.401       .  A
C48         C839   1.496       .  S
C49          C50   1.416       .  A
C49          H54   1.082   1_556  S
C50          C51   1.402       .  A
C50         C203   1.477   1_556  S
C51          C52   1.393       .  A
C51          H55   1.085       .  S
C52          C53   1.390       .  A
C52         C825   1.471       .  S
C53          H56   1.083       .  S
C57          C58   1.378   1_556  D
C57         C794   1.499       .  S
C57         C962   1.516       .  S
C58         C811   1.489   1_554  S
C58         C892   1.511       .  S
C59          C60   1.401       .  A
C59          C64   1.407       .  A
C59         C797   1.482       .  S
C60          C61   1.398       .  A
C60          H65   1.085       .  S
C61          C62   1.395       .  A
C61         C780   1.473       .  S
C62          C63   1.403       .  A
C62          H66   1.086       .  S
C63          C64   1.412       .  A
C63         C225   1.475   1_554  S
C64          H67   1.084   1_554  S
C68          C69   1.411       .  A
C68          C73   1.406       .  A
C68         C808   1.500       .  S
C69          C70   1.413       .  A
C69          H74   1.079   1_556  S
C70          C71   1.400       .  A
C70         C234   1.480   1_556  S
C71          C72   1.396       .  A
C71          H75   1.085       .  S
C72          C73   1.398       .  A
C72         C769   1.487       .  S
C73          H76   1.080       .  S
O77         Ni85   1.900       .  S
O77          C87   1.279       .  A
O78         Ni85   1.907       .  S
O78          C88   1.278       .  A
O79         Ni85   1.915       .  S
O79          C89   1.280       .  A
O80         Ni85   1.908       .  S
O80          C90   1.280       .  A
O81         Ni86   1.907       .  S
O81          C90   1.279       .  A
O82         Ni86   1.899       .  S
O82          C89   1.278       .  A
O83         Ni86   1.904       .  S
O83          C88   1.279       .  A
O84         Ni86   1.913       .  S
O84          C87   1.280       .  A
Ni85        Ni86   2.394       .  S
C87         C738   1.466       .  S
C88         C850   1.460       .  S
C89         C783   1.463       .  S
C90         C752   1.465       .  S
C91          C92   1.398       .  A
C91          C96   1.408       .  A
C91         C727   1.483       .  S
C92          C93   1.393       .  A
C92          H97   1.085       .  S
C93          C94   1.397       .  A
C93         C755   1.478       .  S
C94          C95   1.404       .  A
C94          H98   1.084       .  S
C95          C96   1.414       .  A
C95         C183   1.478       .  S
C96          H99   1.084       .  S
C100        C101   1.404       .  A
C100        C105   1.413       .  A
C100        C713   1.499       .  S
C101        C102   1.399       .  A
C101        H106   1.082       .  S
C102        C103   1.393       .  A
C102        C696   1.474       .  S
C103        C104   1.400       .  A
C103        H107   1.085       .  S
C104        C105   1.410       .  A
C104        C194   1.480       .  S
C105        H108   1.083       .  S
C109        C110   1.378       .  D
C109        C724   1.496       .  S
C109        C979   1.511       .  S
C110        C710   1.491       .  S
C110        C909   1.510       .  S
C111        C112   1.373       .  D
C111        C668   1.488       .  S
C111        C951   1.506       .  S
C112        C682   1.485       .  S
C112        C881   1.510       .  S
C113        C114   1.399       .  A
C113        C118   1.409       .  A
C113        C671   1.497       .  S
C114        C115   1.396       .  A
C114        H119   1.081       .  S
C115        C116   1.400       .  A
C115        C741   1.484       .  S
C116        C117   1.402       .  A
C116        H120   1.084       .  S
C117        C118   1.411       .  A
C117        C266   1.478       .  S
C118        H121   1.083       .  S
C122        C123   1.399       .  A
C122        C127   1.414       .  A
C122        C685   1.488       .  S
C123        C124   1.392       .  A
C123        H128   1.084       .  S
C124        C125   1.390       .  A
C124        C654   1.466       .  S
C125        C126   1.402       .  A
C125        H129   1.085       .  S
C126        C127   1.417       .  A
C126        C259   1.479       .  S
C127        H130   1.083       .  S
O131       Ni139   1.914       .  S
O131        C141   1.282       .  A
O132       Ni139   1.921   1_455  S
O132        C142   1.282       .  A
O133       Ni139   1.899       .  S
O133        C143   1.276       .  A
O134       Ni139   1.898   1_455  S
O134        C144   1.276       .  A
O135       Ni140   1.913   1_455  S
O135        C144   1.282       .  A
O136       Ni140   1.910       .  S
O136        C143   1.281       .  A
O137       Ni140   1.894   1_455  S
O137        C142   1.276       .  A
O138       Ni140   1.895       .  S
O138        C141   1.276       .  A
Ni139      Ni140   2.397       .  S
C141        C766   1.460       .  S
C142        C699   1.459       .  S
C143        C657   1.457       .  S
C144        C822   1.463       .  S
C145        C146   1.409       .  A
C145        C150   1.409       .  A
C145        C640   1.500       .  S
C146        C147   1.412       .  A
C146        H151   1.084       .  S
C147        C148   1.414       .  A
C147        C626   1.511       .  S
C148        C149   1.415       .  A
C148        H152   1.081       .  S
C149        C150   1.413       .  A
C149        C612   1.511       .  S
C150        H153   1.082       .  S
C154        C155   1.410       .  A
C154        C159   1.411       .  A
C154        C643   1.502       .  S
C155        C156   1.414       .  A
C155        H160   1.083       .  S
C156        C157   1.411       .  A
C156        C598   1.509       .  S
C157        C158   1.411       .  A
C157        H161   1.075       .  S
C158        C159   1.410       .  A
C158        C584   1.505       .  S
C159        H162   1.084       .  S
C163        C164   1.410       .  A
C163        C168   1.409       .  A
C163        C570   1.496       .  S
C164        C165   1.409       .  A
C164        H169   1.084       .  S
C165        C166   1.411       .  A
C165        C556   1.506       .  S
C166        C167   1.414       .  A
C166        H170   1.081       .  S
C167        C168   1.411       .  A
C167        C545   1.509       .  S
C168        H171   1.082       .  S
C172        C173   1.405       .  A
C172        C177   1.407       .  A
C172        C573   1.496       .  S
C173        C174   1.408       .  A
C173        H178   1.083       .  S
C174        C175   1.416       .  A
C174        C531   1.510       .  S
C175        C176   1.420       .  A
C175        H179   1.080       .  S
C176        C177   1.416       .  A
C176        C514   1.528       .  S
C177        H180   1.078       .  S
C181        C182   1.417       .  A
C181        C186   1.406       .  A
C181        C500   1.503       .  S
C182        C183   1.413   1_565  A
C182        H187   1.077       .  S
C183        C184   1.399       .  A
C184        C185   1.389   1_545  A
C184        H188   1.085       .  S
C185        C186   1.391       .  A
C185        C489   1.469       .  S
C186        H189   1.083       .  S
C190        C191   1.384       .  D
C190        C503   1.504       .  S
C190        C629   1.525       .  S
C191        C472   1.490       .  S
C191        C559   1.518       .  S
C192        C193   1.405       .  A
C192        C197   1.398       .  A
C192        C475   1.477       .  S
C193        C194   1.412       .  A
C193        H198   1.084       .  S
C194        C195   1.400       .  A
C195        C196   1.397       .  A
C195        H199   1.085       .  S
C196        C197   1.395       .  A
C196        C461   1.475       .  S
C197        H200   1.085       .  S
C201        C202   1.413       .  A
C201        C206   1.402       .  A
C201        C447   1.485       .  S
C202        C203   1.416       .  A
C202        H207   1.083   1_554  S
C203        C204   1.400       .  A
C204        C205   1.389       .  A
C204        H208   1.086       .  S
C205        C206   1.394       .  A
C205        C430   1.466       .  S
C206        H209   1.085       .  S
C210        C211   1.414       .  A
C210        C215   1.400       .  A
C210        C416   1.495       .  S
C211        C212   1.415   1_565  A
C211        H216   1.082   1_556  S
C212        C213   1.401       .  A
C213        C214   1.392   1_545  A
C213        H217   1.085       .  S
C214        C215   1.390       .  A
C214        C402   1.468       .  S
C215        H218   1.084       .  S
C219        C220   1.384   1_556  D
C219        C444   1.496   1_556  S
C219        C542   1.516       .  S
C220        C419   1.508       .  S
C220        C615   1.515       .  S
C221        C222   1.384   1_556  D
C221        C374   1.493   1_556  S
C221        C528   1.518       .  S
C222        C388   1.505       .  S
C222        C601   1.516       .  S
C223        C224   1.416       .  A
C223        C228   1.399       .  A
C223        C391   1.495       .  S
C224        C225   1.417   1_565  A
C224        H229   1.082   1_556  S
C225        C226   1.402       .  A
C226        C227   1.388   1_545  A
C226        H230   1.085       .  S
C227        C228   1.386       .  A
C227        C360   1.463       .  S
C228        H231   1.084       .  S
C232        C233   1.407       .  A
C232        C237   1.403       .  A
C232        C377   1.486       .  S
C233        C234   1.414       .  A
C233        H238   1.084   1_554  S
C234        C235   1.402       .  A
C235        C236   1.392       .  A
C235        H239   1.085       .  S
C236        C237   1.398       .  A
C236        C346   1.473       .  S
C237        H240   1.085       .  S
O241       Ni249   1.896       .  S
O241        C251   1.278       .  A
O242       Ni249   1.900   1_655  S
O242        C252   1.277       .  A
O243       Ni249   1.900       .  S
O243        C253   1.278       .  A
O244       Ni249   1.897   1_655  S
O244        C254   1.279       .  A
O245       Ni250   1.911   1_655  S
O245        C254   1.279       .  A
O246       Ni250   1.902       .  S
O246        C253   1.279       .  A
O247       Ni250   1.901   1_655  S
O247        C252   1.278       .  A
O248       Ni250   1.912       .  S
O248        C251   1.279       .  A
Ni249      Ni250   2.397       .  S
C251        C433   1.459       .  S
C252        C332   1.450       .  S
C253        C458   1.458       .  S
C254        C349   1.464       .  S
C255        C256   1.403       .  A
C255        C260   1.419       .  A
C255        C318   1.505       .  S
C256        C257   1.385       .  A
C256        H261   1.084       .  S
C257        C258   1.390       .  A
C257        C335   1.458       .  S
C258        C259   1.397       .  A
C258        H262   1.085       .  S
C259        C260   1.418       .  A
C260        H263   1.076       .  S
C264        C265   1.412       .  A
C264        C269   1.402       .  A
C264        C304   1.486       .  S
C265        C266   1.413   1_565  A
C265        H270   1.083       .  S
C266        C267   1.400       .  A
C267        C268   1.388   1_545  A
C267        H271   1.085       .  S
C268        C269   1.394       .  A
C268        C290   1.469   1_565  S
C269        H272   1.085       .  S
C273        C274   1.383       .  D
C273        C307   1.493       .  S
C273        C587   1.519       .  S
C274        C321   1.508       .  S
C274        C517   1.512       .  S
O275       Ni283   1.892       .  S
O275        C285   1.277   1_565  A
O276       Ni283   1.899       .  S
O276        C286   1.278   1_565  A
O277       Ni283   1.897       .  S
O277        C287   1.278   1_565  A
O278       Ni283   1.895       .  S
O278        C288   1.279   1_565  A
O279       Ni284   1.906       .  S
O279        C288   1.278       .  A
O280       Ni284   1.904       .  S
O280        C287   1.278       .  A
O281       Ni284   1.905       .  S
O281        C286   1.279       .  A
O282       Ni284   1.911       .  S
O282        C285   1.280       .  A
Ni283      Ni284   2.397   1_565  S
C285        C486   1.459       .  S
C286        C363   1.455       .  S
C287        C405   1.453   1_545  S
C288        C293   1.458       .  S
C289        C290   1.400       .  A
C289        C294   1.403       .  A
C289        H296   1.084       .  S
C290        C291   1.413   1_545  A
C291        C292   1.393       .  A
C291        N298   1.437       .  S
C292        C293   1.396   1_565  A
C292        H297   1.084       .  S
C293        C294   1.413       .  A
C294        N295   1.439       .  S
N295        H299   1.046       .  S
N295        H300   1.045       .  S
N298        H301   1.045       .  S
N298        H302   1.046       .  S
C303        C304   1.406       .  A
C303        C308   1.397       .  A
C303        H310   1.079       .  S
C304        C305   1.411       .  A
C305        C306   1.403       .  A
C305        N312   1.432       .  S
C306        C307   1.409       .  A
C306        H311   1.081       .  S
C307        C308   1.406       .  A
C308        N309   1.438       .  S
N309        H313   1.046       .  S
N309        H314   1.045       .  S
N312        H315   1.045       .  S
N312        H316   1.044       .  S
C317        C318   1.413       .  A
C317        C322   1.400       .  A
C317        H324   1.084       .  S
C318        C319   1.420       .  A
C319        C320   1.401       .  A
C319        N326   1.431       .  S
C320        C321   1.409       .  A
C320        H325   1.078       .  S
C321        C322   1.416       .  A
C322        N323   1.440       .  S
N323        H327   1.046       .  S
N323        H328   1.044       .  S
N326        H329   1.045       .  S
N326        H330   1.043       .  S
C331        C332   1.395       .  A
C331        C336   1.397       .  A
C331        H338   1.084       .  S
C332        C333   1.410       .  A
C333        C334   1.398       .  A
C333        N340   1.438       .  S
C334        C335   1.396       .  A
C334        H339   1.084       .  S
C335        C336   1.410       .  A
C336        N337   1.437       .  S
N337        H341   1.046       .  S
N337        H342   1.041       .  S
N340        H343   1.045       .  S
N340        H344   1.046       .  S
C345        C346   1.400       .  A
C345        C350   1.405       .  A
C345        H352   1.084       .  S
C346        C347   1.411       .  A
C347        C348   1.395       .  A
C347        N354   1.434       .  S
C348        C349   1.397       .  A
C348        H353   1.084       .  S
C349        C350   1.415       .  A
C350        N351   1.438       .  S
N351        H355   1.046       .  S
N351        H356   1.044       .  S
N354        H357   1.044       .  S
N354        H358   1.046       .  S
C359        C360   1.397       .  A
C359        C364   1.388       .  A
C359        H366   1.085       .  S
C360        C361   1.418   1_565  A
C361        C362   1.397       .  A
C361        N368   1.440       .  S
C362        C363   1.399       .  A
C362        H367   1.085       .  S
C363        C364   1.418   1_545  A
C364        N365   1.440       .  S
N365        H369   1.046       .  S
N365        H370   1.038       .  S
N368        H371   1.041       .  S
N368        H372   1.046       .  S
C373        C374   1.399   1_556  A
C373        C378   1.394   1_556  A
C373        H380   1.084       .  S
C374        C375   1.414       .  A
C375        C376   1.411       .  A
C375        N382   1.431       .  S
C376        C377   1.405       .  A
C376        H381   1.083       .  S
C377        C378   1.412       .  A
C378        N379   1.435   1_554  S
N379        H383   1.046       .  S
N379        H384   1.046       .  S
N382        H385   1.046       .  S
N382        H386   1.045   1_554  S
C387        C388   1.402   1_556  A
C387        C392   1.397       .  A
C387        H394   1.081       .  S
C388        C389   1.423       .  A
C389        C390   1.402       .  A
C389        N396   1.433       .  S
C390        C391   1.403   1_554  A
C390        H395   1.082       .  S
C391        C392   1.417       .  A
C392        N393   1.439       .  S
N393        H397   1.046       .  S
N393        H398   1.046       .  S
N396        H399   1.045       .  S
N396        H400   1.043       .  S
C401        C402   1.406   1_545  A
C401        C406   1.397       .  A
C401        H408   1.084       .  S
C402        C403   1.413       .  A
C403        C404   1.390       .  A
C403        N410   1.438       .  S
C404        C405   1.400       .  A
C404        H409   1.085       .  S
C405        C406   1.410   1_565  A
C406        N407   1.438       .  S
N407        H411   1.045       .  S
N407        H412   1.043       .  S
N410        H413   1.044       .  S
N410        H414   1.045       .  S
C415        C416   1.405   1_554  A
C415        C420   1.406       .  A
C415        H422   1.082       .  S
C416        C417   1.421       .  A
C417        C418   1.396       .  A
C417        N424   1.440       .  S
C418        C419   1.404   1_556  A
C418        H423   1.081       .  S
C419        C420   1.416       .  A
C420        N421   1.432       .  S
N421        H425   1.046       .  S
N421        H426   1.046       .  S
N424        H427   1.044       .  S
N424        H428   1.046       .  S
C429        C430   1.395       .  A
C429        C434   1.398       .  A
C429        H436   1.084       .  S
C430        C431   1.420       .  A
C431        C432   1.391       .  A
C431        N438   1.439       .  S
C432        C433   1.395       .  A
C432        H437   1.085       .  S
C433        C434   1.421       .  A
C434        N435   1.438       .  S
N435        H439   1.045       .  S
N435        H440   1.040       .  S
N438        H441   1.041       .  S
N438        H442   1.045       .  S
C443        C444   1.408       .  A
C443        C448   1.408       .  A
C443        H450   1.083       .  S
C444        C445   1.410       .  A
C445        C446   1.398       .  A
C445        N452   1.439   1_554  S
C446        C447   1.404       .  A
C446        H451   1.082       .  S
C447        C448   1.416       .  A
C448        N449   1.437       .  S
N449        H453   1.045   1_554  S
N449        H454   1.043       .  S
N452        H455   1.045   1_556  S
N452        H456   1.046   1_556  S
C457        C458   1.404       .  A
C457        C462   1.399       .  A
C457        H464   1.084       .  S
C458        C459   1.403       .  A
C459        C460   1.397       .  A
C459        N466   1.438       .  S
C460        C461   1.409       .  A
C460        H465   1.084       .  S
C461        C462   1.407       .  A
C462        N463   1.438       .  S
N463        H467   1.046       .  S
N463        H468   1.045       .  S
N466        H469   1.046       .  S
N466        H470   1.046       .  S
C471        C472   1.400       .  A
C471        C476   1.398       .  A
C471        H478   1.084       .  S
C472        C473   1.412       .  A
C473        C474   1.407       .  A
C473        N480   1.431       .  S
C474        C475   1.401       .  A
C474        H479   1.083       .  S
C475        C476   1.413       .  A
C476        N477   1.439       .  S
N477        H481   1.046       .  S
N477        H482   1.046       .  S
N480        H483   1.046       .  S
N480        H484   1.045       .  S
C485        C486   1.400   1_565  A
C485        C490   1.396       .  A
C485        H492   1.085       .  S
C486        C487   1.418       .  A
C487        C488   1.397       .  A
C487        N494   1.440       .  S
C488        C489   1.400   1_545  A
C488        H493   1.084       .  S
C489        C490   1.411       .  A
C490        N491   1.439       .  S
N491        H495   1.046       .  S
N491        H496   1.043       .  S
N494        H497   1.040       .  S
N494        H498   1.046       .  S
C499        C500   1.412       .  A
C499        C504   1.402       .  A
C499        H506   1.083       .  S
C500        C501   1.420       .  A
C501        C502   1.400       .  A
C501        N508   1.431       .  S
C502        C503   1.407       .  A
C502        H507   1.084       .  S
C503        C504   1.412       .  A
C504        N505   1.438       .  S
N505        H509   1.045       .  S
N505        H510   1.045       .  S
N508        H511   1.045       .  S
N508        H512   1.043       .  S
C513        C514   1.415       .  A
C513        C518   1.408       .  A
C513        H520   1.080       .  S
C514        C515   1.426       .  A
C515        C516   1.414       .  A
C515        N522   1.437       .  S
C516        C517   1.402       .  A
C516        H521   1.083       .  S
C517        C518   1.417       .  A
C518        N519   1.439       .  S
N519        H523   1.046       .  S
N519        H524   1.042       .  S
N522        H525   1.046       .  S
N522        H526   1.046       .  S
C527        C528   1.408       .  A
C527        C532   1.414       .  A
C527        H534   1.084       .  S
C528        C529   1.417       .  A
C529        C530   1.400       .  A
C529        N536   1.432       .  S
C530        C531   1.407       .  A
C530        H535   1.084       .  S
C531        C532   1.426       .  A
C532        N533   1.439       .  S
N533        H537   1.046       .  S
N533        H538   1.043       .  S
N536        H539   1.045       .  S
N536        H540   1.043       .  S
C541        C542   1.408       .  A
C541        C546   1.414       .  A
C541        H548   1.083       .  S
C542        C543   1.415       .  A
C543        C544   1.408       .  A
C543        N550   1.438       .  S
C544        C545   1.407       .  A
C544        H549   1.082       .  S
C545        C546   1.417       .  A
C546        N547   1.431       .  S
N547        H551   1.046       .  S
N547        H552   1.046       .  S
N550        H553   1.046       .  S
N550        H554   1.045       .  S
C555        C556   1.412       .  A
C555        C560   1.418       .  A
C555        H562   1.083       .  S
C556        C557   1.419       .  A
C557        C558   1.400       .  A
C557        N564   1.433       .  S
C558        C559   1.407       .  A
C558        H563   1.084       .  S
C559        C560   1.416       .  A
C560        N561   1.436       .  S
N561        H565   1.045       .  S
N561        H566   1.045       .  S
N564        H567   1.046       .  S
N564        H568   1.041       .  S
C569        C570   1.407       .  A
C569        C574   1.409   1_455  A
C569        H576   1.084       .  S
C570        C571   1.420       .  A
C571        C572   1.405   1_455  A
C571        N578   1.440       .  S
C572        C573   1.405       .  A
C572        H577   1.084       .  S
C573        C574   1.419       .  A
C574        N575   1.439       .  S
N575        H579   1.045       .  S
N575        H580   1.043       .  S
N578        H581   1.042       .  S
N578        H582   1.046       .  S
C583        C584   1.411       .  A
C583        C588   1.417       .  A
C583        H590   1.083       .  S
C584        C585   1.419       .  A
C585        C586   1.400       .  A
C585        N592   1.434       .  S
C586        C587   1.408       .  A
C586        H591   1.084       .  S
C587        C588   1.417       .  A
C588        N589   1.437       .  S
N589        H593   1.046       .  S
N589        H594   1.044       .  S
N592        H595   1.046       .  S
N592        H596   1.041       .  S
C597        C598   1.407       .  A
C597        C602   1.409       .  A
C597        H604   1.083       .  S
C598        C599   1.424       .  A
C599        C600   1.409       .  A
C599        N606   1.433       .  S
C600        C601   1.408       .  A
C600        H605   1.082       .  S
C601        C602   1.417       .  A
C602        N603   1.438       .  S
N603        H607   1.046       .  S
N603        H608   1.045       .  S
N606        H609   1.041       .  S
N606        H610   1.046       .  S
C611        C612   1.410       .  A
C611        C616   1.411       .  A
C611        H618   1.083       .  S
C612        C613   1.419       .  A
C613        C614   1.413       .  A
C613        N620   1.438       .  S
C614        C615   1.407       .  A
C614        H619   1.084       .  S
C615        C616   1.412       .  A
C616        N617   1.431       .  S
N617        H621   1.045       .  S
N617        H622   1.046       .  S
N620        H623   1.045       .  S
N620        H624   1.046       .  S
C625        C626   1.408       .  A
C625        C630   1.412       .  A
C625        H632   1.083       .  S
C626        C627   1.422       .  A
C627        C628   1.409       .  A
C627        N634   1.433       .  S
C628        C629   1.409       .  A
C628        H633   1.082       .  S
C629        C630   1.418       .  A
C630        N631   1.438       .  S
N631        H635   1.046       .  S
N631        H636   1.045       .  S
N634        H637   1.042       .  S
N634        H638   1.045       .  S
C639        C640   1.405       .  A
C639        C644   1.408       .  A
C639        H646   1.084       .  S
C640        C641   1.420       .  A
C641        C642   1.411       .  A
C641        N648   1.439       .  S
C642        C643   1.408       .  A
C642        H647   1.084       .  S
C643        C644   1.422       .  A
C644        N645   1.440       .  S
N645        H649   1.046       .  S
N645        H650   1.042       .  S
N648        H651   1.043       .  S
N648        H652   1.046       .  S
C653        C654   1.395       .  A
C653        C658   1.397       .  A
C653        H660   1.084       .  S
C654        C655   1.421       .  A
C655        C656   1.391       .  A
C655        N662   1.436       .  S
C656        C657   1.392       .  A
C656        H661   1.085       .  S
C657        C658   1.421       .  A
C658        N659   1.438       .  S
N659        H663   1.046       .  S
N659        H664   1.039       .  S
N662        H665   1.041       .  S
N662        H666   1.044       .  S
C667        C668   1.397       .  A
C667        C672   1.400       .  A
C667        H674   1.084       .  S
C668        C669   1.421       .  A
C669        C670   1.402       .  A
C669        N676   1.437       .  S
C670        C671   1.403       .  A
C670        H675   1.083       .  S
C671        C672   1.422       .  A
C672        N673   1.439       .  S
N673        H677   1.046       .  S
N673        H678   1.046       .  S
N676        H679   1.037       .  S
N676        H680   1.046       .  S
C681        C682   1.393       .  A
C681        C686   1.388       .  A
C681        H688   1.085       .  S
C682        C683   1.413       .  A
C683        C684   1.409       .  A
C683        N690   1.430       .  S
C684        C685   1.403       .  A
C684        H689   1.084       .  S
C685        C686   1.421       .  A
C686        N687   1.428       .  S
N687        H691   1.040       .  S
N687        H692   1.045       .  S
N690        H693   1.045       .  S
N690        H694   1.046       .  S
C695        C696   1.409       .  A
C695        C700   1.399       .  A
C695        H702   1.085       .  S
C696        C697   1.411       .  A
C697        C698   1.394       .  A
C697        N704   1.438       .  S
C698        C699   1.403       .  A
C698        H703   1.085       .  S
C699        C700   1.409       .  A
C700        N701   1.438       .  S
N701        H705   1.046       .  S
N701        H706   1.043       .  S
N704        H707   1.044       .  S
N704        H708   1.046       .  S
C709        C710   1.399       .  A
C709        C714   1.406       .  A
C709        H716   1.083       .  S
C710        C711   1.411       .  A
C711        C712   1.402       .  A
C711        N718   1.428       .  S
C712        C713   1.404       .  A
C712        H717   1.083       .  S
C713        C714   1.422       .  A
C714        N715   1.438       .  S
N715        H719   1.046       .  S
N715        H720   1.046       .  S
N718        H721   1.044       .  S
N718        H722   1.046       .  S
C723        C724   1.401       .  A
C723        C728   1.395       .  A
C723        H730   1.080       .  S
C724        C725   1.418       .  A
C725        C726   1.409       .  A
C725        N732   1.434       .  S
C726        C727   1.399       .  A
C726        H731   1.084       .  S
C727        C728   1.419       .  A
C728        N729   1.438       .  S
N729        H733   1.045       .  S
N729        H734   1.043       .  S
N732        H735   1.042       .  S
N732        H736   1.046       .  S
C737        C738   1.397       .  A
C737        C742   1.399       .  A
C737        H744   1.084       .  S
C738        C739   1.412       .  A
C739        C740   1.402       .  A
C739        N746   1.438       .  S
C740        C741   1.403       .  A
C740        H745   1.084       .  S
C741        C742   1.420       .  A
C742        N743   1.439       .  S
N743        H747   1.046       .  S
N743        H748   1.046       .  S
N746        H749   1.042       .  S
N746        H750   1.046       .  S
C751        C752   1.395       .  A
C751        C756   1.393       .  A
C751        H758   1.084       .  S
C752        C753   1.414       .  A
C753        C754   1.403       .  A
C753        N760   1.438       .  S
C754        C755   1.401       .  A
C754        H759   1.084       .  S
C755        C756   1.421       .  A
C756        N757   1.432       .  S
N757        H761   1.043       .  S
N757        H762   1.045       .  S
N760        H763   1.045       .  S
N760        H764   1.046       .  S
C765        C766   1.403       .  A
C765        C770   1.401       .  A
C765        H772   1.084       .  S
C766        C767   1.398       .  A
C767        C768   1.401       .  A
C767        N774   1.437       .  S
C768        C769   1.415       .  A
C768        H773   1.083       .  S
C769        C770   1.410       .  A
C770        N771   1.438       .  S
N771        H775   1.046       .  S
N771        H776   1.046       .  S
N774        H777   1.046       .  S
N774        H778   1.043       .  S
C779        C780   1.404       .  A
C779        C784   1.398       .  A
C779        H786   1.080       .  S
C780        C781   1.405       .  A
C781        C782   1.405       .  A
C781        N788   1.437       .  S
C782        C783   1.406       .  A
C782        H787   1.084       .  S
C783        C784   1.406       .  A
C784        N785   1.439       .  S
N785        H789   1.046       .  S
N785        H790   1.044       .  S
N788        H791   1.045       .  S
N788        H792   1.046       .  S
C793        C794   1.402       .  A
C793        C798   1.393   1_556  A
C793        H800   1.084       .  S
C794        C795   1.417   1_556  A
C795        C796   1.412       .  A
C795        N802   1.436       .  S
C796        C797   1.402       .  A
C796        H801   1.083       .  S
C797        C798   1.416       .  A
C798        N799   1.437   1_554  S
N799        H803   1.045   1_556  S
N799        H804   1.043       .  S
N802        H805   1.044   1_554  S
N802        H806   1.046       .  S
C807        C808   1.413       .  A
C807        C812   1.399       .  A
C807        H814   1.082       .  S
C808        C809   1.419   1_556  A
C809        C810   1.403       .  A
C809        N816   1.432       .  S
C810        C811   1.403   1_554  A
C810        H815   1.084       .  S
C811        C812   1.404       .  A
C812        N813   1.438       .  S
N813        H817   1.046       .  S
N813        H818   1.043       .  S
N816        H819   1.046   1_554  S
N816        H820   1.041       .  S
C821        C822   1.399       .  A
C821        C826   1.400       .  A
C821        H828   1.084       .  S
C822        C823   1.423       .  A
C823        C824   1.394       .  A
C823        N830   1.441       .  S
C824        C825   1.395       .  A
C824        H829   1.084       .  S
C825        C826   1.413       .  A
C826        N827   1.438       .  S
N827        H831   1.046       .  S
N827        H832   1.046       .  S
N830        H833   1.038       .  S
N830        H834   1.045       .  S
C835        C836   1.408       .  A
C835        C840   1.409       .  A
C835        H842   1.084       .  S
C836        C837   1.409   1_554  A
C837        C838   1.397       .  A
C837        N844   1.432       .  S
C838        C839   1.408       .  A
C838        H843   1.084       .  S
C839        C840   1.416   1_556  A
C840        N841   1.437       .  S
N841        H845   1.046       .  S
N841        H846   1.046       .  S
N844        H847   1.046       .  S
N844        H848   1.046       .  S
C849        C850   1.394       .  A
C849        C854   1.394       .  A
C849        H856   1.085       .  S
C850        C851   1.413       .  A
C851        C852   1.403       .  A
C851        N858   1.438       .  S
C852        C853   1.397       .  A
C852        H857   1.084       .  S
C853        C854   1.422       .  A
C854        N855   1.439       .  S
N855        H859   1.045       .  S
N855        H860   1.042       .  S
N858        H861   1.045   1_545  S
N858        H862   1.046       .  S
C863        C864   1.405       .  A
C863        C868   1.396       .  A
C863        H870   1.081       .  S
C864        C865   1.413       .  A
C865        C866   1.406       .  A
C865        N872   1.431       .  S
C866        C867   1.408       .  A
C866        H871   1.083       .  S
C867        C868   1.409       .  A
C868        N869   1.438       .  S
N869        H873   1.046       .  S
N869        H874   1.045       .  S
N872        H875   1.046       .  S
N872        H876   1.044   1_554  S
C877        C878   1.406       .  A
C877        C882   1.405       .  A
C877        H884   1.083       .  S
C878        C879   1.421       .  A
C879        C880   1.413       .  A
C879        N886   1.437       .  S
C880        C881   1.406       .  A
C880        H885   1.083       .  S
C881        C882   1.412       .  A
C882        N883   1.426       .  S
N883        H887   1.046       .  S
N883        H888   1.045       .  S
N886        H889   1.046       .  S
N886        H890   1.046       .  S
C891        C892   1.408       .  A
C891        C896   1.400       .  A
C891        H898   1.078       .  S
C892        C893   1.421       .  A
C893        C894   1.413       .  A
C893        N900   1.439       .  S
C894        C895   1.412       .  A
C894        H899   1.083       .  S
C895        C896   1.412       .  A
C896        N897   1.433       .  S
N897        H901   1.046       .  S
N897        H902   1.046       .  S
N900        H903   1.043       .  S
N900        H904   1.046       .  S
C905        C906   1.419       .  A
C905        C910   1.415       .  A
C905        H912   1.078       .  S
C906        C907   1.431       .  A
C907        C908   1.405       .  A
C907        N914   1.433       .  S
C908        C909   1.401       .  A
C908        H913   1.079       .  S
C909        C910   1.408       .  A
C910        N911   1.435       .  S
N911        H915   1.045       .  S
N911        H916   1.046       .  S
N914        H917   1.045       .  S
N914        H918   1.044       .  S
C919        C920   1.409       .  A
C919        C924   1.401       .  A
C919        H926   1.083       .  S
C920        C921   1.424       .  A
C921        C922   1.410       .  A
C921        N928   1.436       .  S
C922        C923   1.408       .  A
C922        H927   1.083       .  S
C923        C924   1.418       .  A
C924        N925   1.433       .  S
N925        H929   1.043       .  S
N925        H930   1.045   1_554  S
N928        H931   1.044       .  S
N928        H932   1.045       .  S
C933        C934   1.407       .  A
C933        C938   1.412   1_455  A
C933        H940   1.084       .  S
C934        C935   1.422       .  A
C935        C936   1.409   1_455  A
C935        N942   1.439       .  S
C936        C937   1.406       .  A
C936        H941   1.084       .  S
C937        C938   1.414       .  A
C938        N939   1.438       .  S
N939        H943   1.046       .  S
N939        H944   1.045       .  S
N942        H945   1.042       .  S
N942        H946   1.046       .  S
C947        C948   1.420       .  A
C947        C952   1.409       .  A
C947        H954   1.076       .  S
C948        C949   1.432       .  A
C949        C950   1.405       .  A
C949        N956   1.433       .  S
C950        C951   1.401       .  A
C950        H955   1.082       .  S
C951        C952   1.406       .  A
C952        N953   1.435       .  S
N953        H957   1.045       .  S
N953        H958   1.045       .  S
N956        H959   1.045       .  S
N956        H960   1.045       .  S
C961        C962   1.409       .  A
C961        C966   1.408       .  A
C961        H968   1.080       .  S
C962        C963   1.414       .  A
C963        C964   1.407       .  A
C963        N970   1.438       .  S
C964        C965   1.407       .  A
C964        H969   1.084       .  S
C965        C966   1.420       .  A
C966        N967   1.437       .  S
N967        H971   1.046       .  S
N967        H972   1.043       .  S
N970        H973   1.044       .  S
N970        H974   1.045       .  S
C975        C976   1.412       .  A
C975        C980   1.410       .  A
C975        H982   1.081       .  S
C976        C977   1.423       .  A
C977        C978   1.408       .  A
C977        N984   1.431       .  S
C978        C979   1.401       .  A
C978        H983   1.079       .  S
C979        C980   1.421       .  A
C980        N981   1.436       .  S
N981        H985   1.044       .  S
N981        H986   1.042       .  S
N984        H987   1.046       .  S
N984        H988   1.046       .  S
C989        C990   1.409       .  A
C989        C994   1.412       .  A
C989        H996   1.084       .  S
C990        C991   1.410       .  A
C991        C992   1.401       .  A
C991        N998   1.432       .  S
C992        C993   1.406       .  A
C992        H997   1.084       .  S
C993        C994   1.423       .  A
C994        N995   1.438       .  S
N995        H999   1.046       .  S
N995       H1000   1.042   1_556  S
N998       H1001   1.046       .  S
N998       H1002   1.046       .  S
C1003      C1004   1.406       .  A
C1003      C1008   1.410       .  A
C1003      H1010   1.084       .  S
C1004      C1005   1.420       .  A
C1005      C1006   1.404       .  A
C1005      N1012   1.440       .  S
C1006      C1007   1.405       .  A
C1006      H1011   1.084       .  S
C1007      C1008   1.420       .  A
C1008      N1009   1.439       .  S
N1009      H1013   1.046       .  S
N1009      H1014   1.043       .  S
N1012      H1015   1.042       .  S
N1012      H1016   1.046       .  S
