geometry optimzed in LAMMPS
_audit_creation_date              2020-11-30 
_audit_creation_method            'lammps2cif' 
_symmetry_space_group_name_H-M    'P1' 
_symmetry_Int_Tables_number       1 
_symmetry_cell_setting            triclinic 
loop_ 
_symmetry_equiv_pos_as_xyz 
  x,y,z 
_cell_length_a                    37.3454893 
_cell_length_b                    36.02055324217317 
_cell_length_c                    24.624504538097707 
_cell_angle_alpha                 87.94107424684475 
_cell_angle_beta                  90.01719343103775 
_cell_angle_gamma                 90.23400693824551 
loop_ 
_atom_site_label 
_atom_site_type_symbol 
_atom_site_fract_x 
_atom_site_fract_y 
_atom_site_fract_z 
_atom_site_charge 
C1          C  0.24472539  0.78754907  0.89713473     0.86200
C2          C  0.21664708  0.78369684  0.94285912    -0.54100
C3          C  0.21874337  0.75211038  0.97463904     0.09100
C4          C  0.25155705  0.72771791  0.96063729     0.20000
C5          C  0.28036317  0.78538932  0.92835584    -0.54800
C6          C  0.28454659  0.75443418  0.96139402     0.09200
C7          C  0.24260488  0.75075439  0.86705332    -0.54300
C8          C  0.24591192  0.71906986  0.89971063     0.09700
H9          H  0.19679566  0.80461222  0.95104789     0.14300
H10         H  0.25490722  0.70279453  0.98789652     0.00000
H11         H  0.30080129  0.80689512  0.92508921     0.14600
H12         H  0.23825610  0.74998612  0.82351125     0.14400
C13         C  0.24832911  0.78275133  0.40966430     0.86200
C14         C  0.24840728  0.74447050  0.38217686    -0.54100
C15         C  0.25178907  0.71432133  0.41784661     0.09100
C16         C  0.25435012  0.72552119  0.47796541     0.20000
C17         C  0.21751546  0.77850273  0.45058855    -0.54800
C18         C  0.22026749  0.74907275  0.48684663     0.09200
C19         C  0.28266985  0.78254098  0.44371919    -0.54300
C20         C  0.28622707  0.75304621  0.47933657     0.09700
H21         H  0.24394306  0.74091089  0.33930460     0.14300
H22         H  0.25729493  0.70157816  0.50719372     0.00000
H23         H  0.19497758  0.79748039  0.45060854     0.14600
H24         H  0.30310001  0.80400778  0.43919333     0.14400
C25         C  0.78754062  0.24565830  0.02012018     0.86200
C26         C  0.78129515  0.27726103  0.05909761    -0.54100
C27         C  0.75217208  0.27316858  0.09183631     0.09100
C28         C  0.73050710  0.23693973  0.08202748     0.20000
C29         C  0.78743555  0.21031309  0.05637873    -0.54800
C30         C  0.75764620  0.20417361  0.08774097     0.09200
C31         C  0.75154118  0.24472533  0.98828286    -0.54300
C32         C  0.72151144  0.23952121  0.02044510     0.09700
H33         H  0.79763476  0.30229286  0.05910653     0.14300
H34         H  0.70638080  0.23424161  0.10794293     0.00000
H35         H  0.80912713  0.19035002  0.05482140     0.14600
H36         H  0.74955045  0.24916762  0.94467800     0.14400
C37         C  0.78117986  0.25347241  0.50013138     0.86200
C38         C  0.74357383  0.25218606  0.47388987    -0.54100
C39         C  0.71564979  0.24611877  0.50958759     0.09100
C40         C  0.72832851  0.24225856  0.56965145     0.20000
C41         C  0.77847212  0.28271256  0.54401868    -0.54800
C42         C  0.75059049  0.27812785  0.57934194     0.09200
C43         C  0.78381200  0.21701729  0.53421810    -0.54300
C44         C  0.75627650  0.20997704  0.57005089     0.09700
H45         H  0.73955830  0.25550817  0.43031904     0.14300
H46         H  0.70586648  0.23819179  0.59866939     0.00000
H47         H  0.79688561  0.30563997  0.54809426     0.14600
H48         H  0.80572660  0.19769633  0.52935815     0.14400
N49         N  0.10756133  0.74235370  0.13901955    -0.03800
C50         C  0.10460526  0.71460403  0.17803014    -0.01200
C51         C  0.10247693  0.72948539  0.22886287    -0.24100
C52         C  0.10101753  0.76712566  0.22096897    -0.24300
C53         C  0.10174316  0.77444786  0.16543690    -0.01300
H54         H  0.09624459  0.71452029  0.26661595     0.12500
H55         H  0.09274383  0.78610620  0.25156040     0.12500
N56         N  0.10552130  0.74885508  0.64166305    -0.03800
C57         C  0.10786029  0.78224638  0.66514812    -0.01200
C58         C  0.11054830  0.77732195  0.72099818    -0.24100
C59         C  0.10509621  0.74027227  0.73252566    -0.24300
C60         C  0.09879952  0.72412794  0.68327210    -0.01300
H61         H  0.10866535  0.79885585  0.75043293     0.12500
H62         H  0.09878973  0.72831420  0.77236258     0.12500
N63         N  0.73986199  0.40506212  0.21481667    -0.03800
C64         C  0.71847033  0.41219667  0.25813405    -0.01200
C65         C  0.73811111  0.42796493  0.29900177    -0.24100
C66         C  0.77238087  0.43142440  0.28057840    -0.24300
C67         C  0.77276087  0.41806782  0.22874014    -0.01300
H68         H  0.72781610  0.44005336  0.33541766     0.12500
H69         H  0.79369417  0.44652120  0.29997714     0.12500
N70         N  0.73598618  0.42256267  0.67003207    -0.03800
C71         C  0.76614781  0.44322540  0.67916264    -0.01200
C72         C  0.75785156  0.47985616  0.68711181    -0.24100
C73         C  0.72163302  0.48251835  0.68441390    -0.24300
C74         C  0.70858347  0.44745209  0.67453931    -0.01300
H75         H  0.77629288  0.50191439  0.69684255     0.12500
H76         H  0.70614134  0.50700577  0.69275715     0.12500
N77         N  0.42462000  0.75468187  0.06504697    -0.03800
C78         C  0.44833962  0.72643036  0.05746661    -0.01200
C79         C  0.47773482  0.73935553  0.02821132    -0.24100
C80         C  0.47434933  0.77689939  0.02286466    -0.24300
C81         C  0.44367145  0.78617279  0.05057954    -0.01300
H82         H  0.50209415  0.72437892  0.02001798     0.12500
H83         H  0.49616523  0.79554770  0.01166305     0.12500
N84         N  0.42770643  0.75643078  0.57067946    -0.03800
C85         C  0.44555019  0.78740012  0.55110658    -0.01200
C86         C  0.47549793  0.77692924  0.52247653    -0.24100
C87         C  0.47971228  0.73964394  0.53216173    -0.24300
C88         C  0.45119330  0.72793159  0.56420851    -0.01300
H89         H  0.49647577  0.79530993  0.50711863     0.12500
H90         H  0.50349629  0.72406591  0.52279610     0.12500
N91         N  0.74410679  0.05278438  0.17658817    -0.03800
C92         C  0.71420695  0.03335172  0.19095800    -0.01200
C93         C  0.72209590  0.99649564  0.20260331    -0.24100
C94         C  0.75821757  0.99283583  0.19588189    -0.24300
C95         C  0.77108214  0.02764863  0.18076829    -0.01300
H96         H  0.70372465  0.97505285  0.21715038     0.12500
H97         H  0.77382527  0.96811170  0.20483905     0.12500
N98         N  0.73929520  0.06039099  0.66475231    -0.03800
C99         C  0.76348897  0.03253596  0.67342515    -0.01200
C100        C  0.74625383  0.99953509  0.68755526    -0.24100
C101        C  0.71045231  0.00664799  0.68633831    -0.24300
C102        C  0.70690531  0.04386875  0.67249980    -0.01300
H103        H  0.75851057  0.97346026  0.70020775     0.12500
H104        H  0.68923314  0.98737215  0.69785990     0.12500
N105        N  0.91736182  0.25503502  0.38437580    -0.03800
C106        C  0.94038927  0.28446279  0.38919484    -0.01200
C107        C  0.97206893  0.27336675  0.41350448    -0.24100
C108        C  0.97012158  0.23587072  0.42096097    -0.24300
C109        C  0.93801189  0.22465415  0.39881484    -0.01300
H110        H  0.99579618  0.29011379  0.41935708     0.12500
H111        H  0.99282526  0.21824047  0.43076371     0.12500
N112        N  0.93290179  0.24033210  0.93255068    -0.03800
C113        C  0.94874734  0.20689702  0.94251620    -0.01200
C114        C  0.98421309  0.21219427  0.95674744    -0.24100
C115        C  0.99122430  0.24940497  0.95021033    -0.24300
C116        C  0.95953896  0.26609873  0.93402073    -0.01300
H117        H  0.00453397  0.19087953  0.96029004     0.12500
H118        H  0.01766195  0.26182212  0.94917953     0.12500
O119        O  0.99882538  0.03952124  0.10462799    -0.81200
O120        O  0.95913476  0.99470304  0.34465890    -0.65900
O121        O  0.00777435  0.02681318  0.21674553    -1.12500
C122        C  0.01175372  0.89610712  0.18419596     1.05700
O123        O  0.99548288  0.94710235  0.35981693    -0.79100
O124        O  0.04452293  0.92531124  0.29032498    -0.66700
Ni125      Ni  0.99002547  0.06594118  0.17027332     1.34900
C126        C  0.06586026  0.94717016  0.26512790     0.84400
O127        O  0.98118239  0.06132012  0.30840095    -0.79700
O128        O  0.97821870  0.09616043  0.23128688    -0.89900
C129        C  0.97836071  0.97496872  0.37639314     0.84000
O130        O  0.94217204  0.04854416  0.16799427    -0.68100
O131        O  0.99584679  0.89009458  0.22972211    -0.87400
C132        C  0.92274026  0.03428941  0.20539805     0.84800
C133        C  0.97522018  0.09215779  0.28298402     1.06400
H134        H  0.95895066  0.95906972  0.23504806     0.38200
O135        O  0.98247053  0.96393950  0.24956357    -1.10100
O136        O  0.05605710  0.97134284  0.22888979    -0.66700
Ni137      Ni  0.01166103  0.97782085  0.18940147     1.26300
O138        O  0.93481452  0.02132166  0.25050181    -0.67000
O139        O  0.01738405  0.92858157  0.16392540    -0.79300
C140        C  0.01936457  0.01313835  0.09154113     0.84200
O141        O  0.03724947  0.99463520  0.12685896    -0.66400
Ni142      Ni  0.99403706  0.92057886  0.29295610     1.27400
Ni143      Ni  0.98183687  0.01231580  0.28016917     1.26100
H144        H  0.03120989  0.03479892  0.22833071     0.38700
O145        O  0.98018830  0.04510705  0.61544551    -0.81200
O146        O  0.95828516  0.98425436  0.85080111    -0.65900
O147        O  0.99861033  0.02763321  0.72276434    -1.12500
C148        C  0.01677339  0.90172138  0.67571003     1.05700
O149        O  0.00092781  0.94166295  0.85801810    -0.79100
O150        O  0.05000829  0.93289813  0.78215628    -0.66700
Ni151      Ni  0.97984203  0.06937177  0.68399968     1.34900
C152        C  0.06727458  0.95821185  0.75603710     0.84400
O153        O  0.96903238  0.05461300  0.81814093    -0.79700
O154        O  0.97710318  0.09658640  0.74966149    -0.89900
C155        C  0.98098222  0.96577195  0.87905105     0.84000
O156        O  0.93075930  0.05655884  0.69180055    -0.68100
O157        O  0.00434942  0.89196801  0.72236360    -0.87400
C158        C  0.91345041  0.03317960  0.72130967     0.84800
C159        C  0.96906996  0.08803753  0.79896002     1.06400
H160        H  0.95890779  0.95318425  0.73790862     0.38200
O161        O  0.98214864  0.96111319  0.75041366    -1.10100
O162        O  0.05325787  0.97987112  0.72002271    -0.66700
Ni163      Ni  0.00613166  0.98160506  0.68818929     1.26300
O164        O  0.92771769  0.01113784  0.75688354    -0.67000
O165        O  0.01633493  0.93496672  0.65628208    -0.79300
C166        C  0.00150595  0.02180138  0.59526223     0.84200
O167        O  0.02500436  0.00532636  0.62442137    -0.66400
Ni168      Ni  0.00109705  0.91872112  0.78847422     1.27400
Ni169      Ni  0.97595534  0.00744860  0.78564759     1.26100
H170        H  0.02164348  0.03629787  0.73498345     0.38700
N171        N  0.24409792  0.92137437  0.27838626    -0.03800
C172        C  0.27312392  0.93723381  0.25368477    -0.01200
C173        C  0.26347491  0.96736332  0.22086328    -0.24100
C174        C  0.22740241  0.97110247  0.22622327    -0.24300
C175        C  0.21625447  0.94356408  0.26308598    -0.01300
H176        H  0.28114664  0.98569564  0.19750262     0.12500
H177        H  0.21113452  0.99251721  0.20673878     0.12500
N178        N  0.24246556  0.93942618  0.81474293    -0.03800
C179        C  0.21473371  0.96388229  0.82018358    -0.01200
C180        C  0.22635065  0.99868816  0.83356474    -0.24100
C181        C  0.26255669  0.99698758  0.83604740    -0.24300
C182        C  0.27191566  0.96125923  0.82358868    -0.01300
H183        H  0.21017309  0.02332827  0.83740961     0.12500
H184        H  0.28051810  0.02025158  0.84138104     0.12500
O185        O  0.49022130  0.95387657  0.37725417    -0.81200
O186        O  0.46496583  0.00411118  0.13612138    -0.65900
O187        O  0.50790303  0.97082639  0.26801767    -1.12500
C188        C  0.50292984  0.09954562  0.31010562     1.05700
O189        O  0.50152444  0.05258781  0.12741193    -0.79100
O190        O  0.54705523  0.07222081  0.20417238    -0.66700
Ni191      Ni  0.49081101  0.92851951  0.30922555     1.34900
C192        C  0.56655844  0.05195641  0.23494969     0.84400
O193        O  0.48734392  0.93767002  0.17153376    -0.79700
O194        O  0.48784645  0.89907794  0.24494179    -0.89900
C195        C  0.48485945  0.02539090  0.10734402     0.84000
O196        O  0.44126346  0.93838709  0.30278948    -0.68100
O197        O  0.49589942  0.10693109  0.25999182    -0.87400
C198        C  0.42323026  0.95360022  0.26467436     0.84800
C199        C  0.48465620  0.90513039  0.19366440     1.06400
H200        H  0.45758920  0.03755649  0.24521609     0.38200
O201        O  0.48221959  0.03338936  0.23511327    -1.10100
O202        O  0.55409985  0.02909052  0.27108431    -0.66700
Ni203      Ni  0.50673364  0.01861034  0.29956603     1.26300
O204        O  0.43687195  0.97335509  0.22587785    -0.67000
O205        O  0.50612099  0.06663304  0.32997336    -0.79300
C206        C  0.50799468  0.98086892  0.39588847     0.84200
O207        O  0.52794078  0.00077835  0.36508352    -0.66400
Ni208      Ni  0.49702218  0.07760269  0.19544625     1.27400
Ni209      Ni  0.48488595  0.98582308  0.20239092     1.26100
H210        H  0.53241021  0.96524209  0.25893136     0.38700
O211        O  0.49304285  0.95696054  0.87063863    -0.81200
O212        O  0.45303521  0.01083154  0.64029407    -0.65900
O213        O  0.50642009  0.97570420  0.76131984    -1.12500
C214        C  0.50656152  0.10277011  0.81075449     1.05700
O215        O  0.48784361  0.06011967  0.62679262    -0.79100
O216        O  0.54033981  0.07635167  0.69430382    -0.66700
Ni217      Ni  0.49390347  0.93191838  0.80260110     1.34900
C218        C  0.56196941  0.05674601  0.72248624     0.84400
O219        O  0.47710064  0.94337206  0.66941716    -0.79700
O220        O  0.49222263  0.90361814  0.73774445    -0.89900
C221        C  0.47083544  0.03237561  0.60871403     0.84000
O222        O  0.44341722  0.93705615  0.80010112    -0.68100
O223        O  0.49598741  0.11109282  0.76235243    -0.87400
C224        C  0.42211555  0.95785303  0.77333266     0.84800
C225        C  0.48251192  0.91035320  0.68863100     1.06400
H226        H  0.45513306  0.04288413  0.75083521     0.38200
O227        O  0.47870793  0.03862491  0.73623108    -1.10100
O228        O  0.55261723  0.03431441  0.76129968    -0.66700
Ni229      Ni  0.50737139  0.02239307  0.79577782     1.26300
O230        O  0.43261187  0.98063285  0.73575551    -0.67000
O231        O  0.50899714  0.06939075  0.82912386    -0.79300
C232        C  0.51193229  0.98344297  0.88820523     0.84200
O233        O  0.53221495  0.00244604  0.85679177    -0.66400
Ni234      Ni  0.49029329  0.08347261  0.69640034     1.27400
Ni235      Ni  0.47805247  0.99150531  0.70160315     1.26100
H236        H  0.53006655  0.97108738  0.74717904     0.38700
N237        N  0.56411331  0.24803608  0.44606544    -0.03800
C238        C  0.54522755  0.27669515  0.46722841    -0.01200
C239        C  0.51761309  0.26307140  0.49940684    -0.24100
C240        C  0.51552958  0.22591343  0.49140313    -0.24300
C241        C  0.54262557  0.21742363  0.45537902    -0.01300
H242        H  0.49629743  0.27927665  0.51649518     0.12500
H243        H  0.49265142  0.20893952  0.50303725     0.12500
N244        N  0.57246090  0.24630918  0.94918269    -0.03800
C245        C  0.54972855  0.21698545  0.95862493    -0.01200
C246        C  0.52170747  0.22718504  0.99131383    -0.24100
C247        C  0.52544521  0.26444578  0.99859669    -0.24300
C248        C  0.55461495  0.27635985  0.96785990    -0.01300
H249        H  0.49789721  0.21100930  0.00085917     0.12500
H250        H  0.50428529  0.28195183  0.01326915     0.12500
O251        O  0.03375956  0.48126630  0.10777703    -0.81200
O252        O  0.00651951  0.54230405  0.34033754    -0.65900
O253        O  0.02630253  0.48105100  0.22113424    -1.12500
C254        C  0.89970035  0.48484376  0.19324721     1.05700
O255        O  0.95679880  0.51142328  0.36187354    -0.79100
O256        O  0.93083683  0.45603065  0.30598803    -0.66700
Ni257      Ni  0.06352355  0.49130098  0.17026260     1.34900
C258        C  0.94948722  0.43058936  0.28581026     0.84400
O259        O  0.06562786  0.51112140  0.30465219    -0.79700
O260        O  0.09685132  0.50256196  0.22793745    -0.89900
C261        C  0.98472712  0.52899144  0.37569642     0.84000
O262        O  0.05404530  0.54282258  0.15910395    -0.68100
O263        O  0.89766343  0.50463082  0.23503182    -0.87400
C264        C  0.04444448  0.56741021  0.19171730     0.84800
C265        C  0.09493121  0.50995473  0.27834908     1.06400
H266        H  0.96658083  0.53788886  0.23017052     0.38200
O267        O  0.96984853  0.51454766  0.24954946    -1.10100
O268        O  0.97043008  0.43582958  0.24530795    -0.66700
Ni269      Ni  0.97800370  0.47832362  0.19631710     1.26300
O270        O  0.03011685  0.55950324  0.23806291    -0.67000
O271        O  0.92915499  0.47397045  0.17367997    -0.79300
C272        C  0.00693178  0.45991190  0.10058829     0.84200
O273        O  0.98952319  0.44569440  0.14034554    -0.66400
Ni274      Ni  0.92934262  0.50874040  0.29612047     1.27400
Ni275      Ni  0.01765707  0.51353363  0.27857340     1.26100
H276        H  0.03244701  0.45728711  0.23800328     0.38700
O277        O  0.98597878  0.52877534  0.87503418    -0.81200
O278        O  0.02800768  0.50653109  0.63479796    -0.65900
O279        O  0.97455268  0.52640812  0.76177174    -1.12500
C280        C  0.97790136  0.39486388  0.78996006     1.05700
O281        O  0.99052386  0.46110288  0.61415416    -0.79100
O282        O  0.93878810  0.43274023  0.68021577    -0.66700
Ni283      Ni  0.98864523  0.56265865  0.81216880     1.34900
C284        C  0.91704425  0.44906843  0.71077926     0.84400
O285        O  0.00607484  0.56957999  0.67712905    -0.79700
O286        O  0.99465394  0.59940640  0.75405195    -0.89900
C287        C  0.01011538  0.48903739  0.60007044     0.84000
O288        O  0.03883027  0.55473756  0.81099316    -0.68100
O289        O  0.98696047  0.39231677  0.73994403    -0.87400
C290        C  0.05987644  0.54070531  0.77710045     0.84800
C291        C  0.00582350  0.59883851  0.70487596     1.06400
H292        H  0.02497597  0.46094853  0.73977810     0.38200
O293        O  0.00152367  0.46733177  0.72580326    -1.10100
O294        O  0.92707366  0.46822449  0.75086706    -0.66700
Ni295      Ni  0.97261391  0.47578083  0.78712162     1.26300
O296        O  0.04929889  0.52454568  0.73460035    -0.67000
O297        O  0.97208609  0.42549112  0.81213201    -0.79300
C298        C  0.96560690  0.50123678  0.88672162     0.84200
O299        O  0.94673252  0.48670064  0.85059255    -0.66400
Ni300      Ni  0.98958152  0.42829425  0.67878910     1.27400
Ni301      Ni  0.00329727  0.51811806  0.69971963     1.26100
H302        H  0.95107362  0.53357367  0.74881531     0.38700
N303        N  0.25510931  0.55616873  0.37744826    -0.03800
C304        C  0.28661167  0.53765056  0.37297979    -0.01200
C305        C  0.28150464  0.49987234  0.37994726    -0.24100
C306        C  0.24560812  0.49436994  0.38711215    -0.24300
C307        C  0.22970750  0.52901177  0.38417238    -0.01300
H308        H  0.30132794  0.47844371  0.37478286     0.12500
H309        H  0.23214359  0.46770028  0.38714055     0.12500
N310        N  0.23987834  0.57210396  0.80751369    -0.03800
C311        C  0.21021989  0.55069650  0.79963254    -0.01200
C312        C  0.21933791  0.51476425  0.78812498    -0.24100
C313        C  0.25574011  0.51321621  0.78904537    -0.24300
C314        C  0.26774969  0.54826369  0.80113371    -0.01300
H315        H  0.20124447  0.49228207  0.77893283     0.12500
H316        H  0.27195994  0.48932986  0.78022860     0.12500
O317        O  0.50113387  0.45889268  0.15521245    -0.81200
O318        O  0.53459006  0.51267146  0.38545400    -0.65900
O319        O  0.48650487  0.47695481  0.26249033    -1.12500
C320        C  0.48946046  0.60445662  0.20234434     1.05700
O321        O  0.49783569  0.56056671  0.39002655    -0.79100
O322        O  0.44971490  0.57872068  0.31510216    -0.66700
Ni323      Ni  0.50061480  0.43407082  0.22575694     1.34900
C324        C  0.42868862  0.55715360  0.29084103     0.84400
O325        O  0.51166464  0.44484915  0.36085819    -0.79700
O326        O  0.50244287  0.40557646  0.29329347    -0.89900
C327        C  0.51497964  0.53378416  0.41271290     0.84000
O328        O  0.55093800  0.44103897  0.22933493    -0.68100
O329        O  0.49914158  0.61248766  0.25034477    -0.87400
C330        C  0.57114627  0.45833480  0.26119229     0.84800
C331        C  0.50924343  0.41203611  0.34304033     1.06400
H332        H  0.53725495  0.54413799  0.27072103     0.38200
O333        O  0.51317350  0.53989028  0.28396928    -1.10100
O334        O  0.43938482  0.53402345  0.25612812    -0.66700
Ni335      Ni  0.48586989  0.52399209  0.22409025     1.26300
O336        O  0.55974755  0.48041214  0.29678343    -0.67000
O337        O  0.48480801  0.57143999  0.18713489    -0.79300
C338        C  0.48204549  0.48452580  0.13337793     0.84200
O339        O  0.46271938  0.50476726  0.16248981    -0.66400
Ni340      Ni  0.50007981  0.58450724  0.31867180     1.27400
Ni341      Ni  0.51250377  0.49282828  0.32348106     1.26100
H342        H  0.46250043  0.47156131  0.27518400     0.38700
O343        O  0.49326048  0.45001575  0.64614081    -0.81200
O344        O  0.53006494  0.50101490  0.87627795    -0.65900
O345        O  0.47943080  0.46737805  0.75405063    -1.12500
C346        C  0.47943986  0.59588276  0.69894477     1.05700
O347        O  0.49180948  0.54739544  0.88449713    -0.79100
O348        O  0.43999468  0.56468705  0.81353471    -0.66700
Ni349      Ni  0.49136828  0.42404209  0.71621602     1.34900
C350        C  0.42011619  0.54603694  0.78283346     0.84400
O351        O  0.51012951  0.43330462  0.84768444    -0.79700
O352        O  0.49262340  0.39476696  0.78319099    -0.89900
C353        C  0.51092697  0.52154118  0.90566407     0.84000
O354        O  0.54170883  0.42901547  0.71934181    -0.68100
O355        O  0.48648703  0.60251749  0.74844810    -0.87400
C356        C  0.56304471  0.45005346  0.74383102     0.84800
C357        C  0.50489106  0.40062315  0.83057879     1.06400
H358        H  0.52893490  0.53641468  0.76398901     0.38200
O359        O  0.50519658  0.53038101  0.77727071    -1.10100
O360        O  0.43218596  0.52470550  0.74697425    -0.66700
Ni361      Ni  0.47860756  0.51496632  0.71673452     1.26300
O362        O  0.55333230  0.47324072  0.77928490    -0.67000
O363        O  0.47757732  0.56320022  0.68083688    -0.79300
C364        C  0.47547394  0.47723737  0.62595326     0.84200
O365        O  0.45531786  0.49611177  0.65543594    -0.66400
Ni366      Ni  0.49034897  0.57296860  0.81494305     1.27400
Ni367      Ni  0.50722349  0.48223579  0.81372585     1.26100
H368        H  0.45568924  0.46245801  0.76825188     0.38700
C369        C  0.50632887  0.52322369  0.46960293    -0.06500
C370        C  0.47005161  0.52333845  0.48507037    -0.17600
C371        C  0.45880163  0.50755169  0.53492446     0.10700
C372        C  0.48433441  0.49126680  0.57053810    -0.06400
C373        C  0.52074329  0.49224347  0.55567133    -0.17600
C374        C  0.53201796  0.50873423  0.50631429     0.10800
S375        S  0.41147796  0.50756051  0.54930347    -0.32600
S376        S  0.57948421  0.51202253  0.49358064    -0.32600
H377        H  0.57772470  0.54456583  0.46038849     0.28800
H378        H  0.41126140  0.47315762  0.57818751     0.28800
H379        H  0.45000002  0.53428567  0.45702998     0.19400
H380        H  0.54082241  0.48134840  0.58367799     0.19400
C381        C  0.50584687  0.51318418  0.96489895    -0.06500
C382        C  0.47553325  0.52839992  0.99015989    -0.17600
C383        C  0.46593270  0.51872042  0.04370646     0.10700
C384        C  0.48725812  0.49325873  0.07425498    -0.06400
C385        C  0.51764177  0.47820356  0.04903834    -0.17600
C386        C  0.52746905  0.48828699  0.99570651     0.10800
S387        S  0.42580863  0.53954516  0.06938949    -0.32600
S388        S  0.56893441  0.46985099  0.97104053    -0.32600
H389        H  0.58010960  0.50369417  0.94607850     0.28800
H390        H  0.41270717  0.50622652  0.09361826     0.28800
H391        H  0.45817627  0.54741042  0.96759620     0.19400
H392        H  0.53509442  0.45936317  0.07171806     0.19400
C393        C  0.38095141  0.55065147  0.78749548    -0.06500
C394        C  0.36519281  0.55526818  0.83881640    -0.17600
C395        C  0.32785870  0.55876571  0.84422559     0.10700
C396        C  0.30617542  0.55703371  0.79772982    -0.06400
C397        C  0.32208318  0.55421811  0.74653758    -0.17600
C398        C  0.35914488  0.55239793  0.74064204     0.10800
S399        S  0.30781763  0.56335865  0.91029949    -0.32600
S400        S  0.37809065  0.55414571  0.67294229    -0.32600
H401        H  0.34569064  0.55754451  0.64409740     0.28800
H402        H  0.34010388  0.56661744  0.93921333     0.28800
H403        H  0.38202180  0.55512186  0.87463693     0.19400
H404        H  0.30509655  0.55252975  0.71104482     0.19400
C405        C  0.32021512  0.55230309  0.34924619    -0.06500
C406        C  0.32714974  0.54556058  0.29438464    -0.17600
C407        C  0.36174240  0.54913281  0.27279609     0.10700
C408        C  0.39040165  0.55845629  0.30729443    -0.06400
C409        C  0.38263478  0.56788497  0.36123906    -0.17600
C410        C  0.34788659  0.56479373  0.38244025     0.10800
S411        S  0.36737599  0.54147649  0.20138384    -0.32600
S412        S  0.33931687  0.57406655  0.45283484    -0.32600
H413        H  0.37466355  0.58359631  0.46654714     0.28800
H414        H  0.39402447  0.56888308  0.19342697     0.28800
H415        H  0.30561967  0.53604015  0.26875230     0.19400
H416        H  0.40418274  0.57579564  0.38790767     0.19400
C417        C  0.09864182  0.54619911  0.78583365    -0.06500
C418        C  0.11927058  0.55936652  0.74158401    -0.17600
C419        C  0.15552370  0.56795508  0.74765588     0.10700
C420        C  0.17234453  0.56186162  0.79845232    -0.06400
C421        C  0.15137612  0.55062719  0.84339102    -0.17600
C422        C  0.11476693  0.54303588  0.83782281     0.10800
S423        S  0.17988526  0.58422598  0.68840442    -0.32600
S424        S  0.09101236  0.52650265  0.89775080    -0.32600
H425        H  0.06897822  0.50153369  0.87041386     0.28800
H426        H  0.20167781  0.60808977  0.71798089     0.28800
H427        H  0.10700564  0.56333888  0.70201936     0.19400
H428        H  0.16422149  0.54438920  0.88209976     0.19400
C429        C  0.12830947  0.51850364  0.30794280    -0.06500
C430        C  0.13264447  0.50438799  0.36136250    -0.17600
C431        C  0.16430038  0.51039343  0.39028814     0.10700
C432        C  0.19208907  0.53215481  0.36591207    -0.06400
C433        C  0.18640594  0.54883944  0.31437883    -0.17600
C434        C  0.15514559  0.54196993  0.28497431     0.10800
S435        S  0.16774164  0.48758757  0.45667325    -0.32600
S436        S  0.15070164  0.56288826  0.21776384    -0.32600
H437        H  0.17632346  0.59114415  0.22427345     0.28800
H438        H  0.20012738  0.50331398  0.47320924     0.28800
H439        H  0.11178583  0.48719648  0.37993772     0.19400
H440        H  0.20785191  0.56469164  0.29494063     0.19400
C441        C  0.99301142  0.52909011  0.43487486    -0.06500
C442        C  0.02824666  0.52193006  0.45277206    -0.17600
C443        C  0.03533294  0.50971800  0.50678212     0.10700
C444        C  0.00660101  0.50464323  0.54377985    -0.06400
C445        C  0.97209940  0.51485302  0.52691054    -0.17600
C446        C  0.96507558  0.52746751  0.47374832     0.10800
S447        S  0.08103797  0.49893952  0.52451099    -0.32600
S448        S  0.91950332  0.54037960  0.45801705    -0.32600
H449        H  0.92870895  0.56685844  0.41692628     0.28800
H450        H  0.07348108  0.47261714  0.56643037     0.28800
H451        H  0.05003004  0.52305081  0.42369223     0.19400
H452        H  0.95018800  0.51292847  0.55562153     0.19400
C453        C  0.99236084  0.45793833  0.04499554    -0.06500
C454        C  0.95765917  0.47182964  0.03559269    -0.17600
C455        C  0.94661802  0.48385628  0.98343132     0.10700
C456        C  0.97075025  0.48160657  0.93966657    -0.06400
C457        C  0.00385194  0.46397294  0.94819999    -0.17600
C458        C  0.01481793  0.45202494  0.00019317     0.10800
S459        S  0.90332766  0.50554368  0.97698960    -0.32600
S460        S  0.05846869  0.43129022  0.00739624    -0.32600
H461        H  0.05044899  0.41089452  0.05569813     0.28800
H462        H  0.89857388  0.49969347  0.92141536     0.28800
H463        H  0.94016570  0.47658842  0.06963906     0.19400
H464        H  0.02207970  0.46112920  0.91437548     0.19400
C465        C  0.54698590  0.30925892  0.93146524    -0.06500
C466        C  0.53135421  0.30255374  0.88098459    -0.17600
C467        C  0.51601548  0.33088770  0.84863045     0.10700
C468        C  0.51615062  0.36803002  0.86638140    -0.06400
C469        C  0.53196847  0.37463988  0.91737330    -0.17600
C470        C  0.54737458  0.34589870  0.94965105     0.10800
S471        S  0.49621892  0.31654943  0.78597147    -0.32600
S472        S  0.56703450  0.35749328  0.01372203    -0.32600
H473        H  0.59183096  0.32816804  0.01557132     0.28800
H474        H  0.46280033  0.33239376  0.79748200     0.28800
H475        H  0.52927978  0.27436683  0.86769827     0.19400
H476        H  0.53289335  0.40254029  0.93214963     0.19400
C477        C  0.53676915  0.31142566  0.43515205    -0.06500
C478        C  0.54831652  0.34579495  0.45370366    -0.17600
C479        C  0.53845842  0.37930945  0.42673616     0.10700
C480        C  0.51606713  0.37886268  0.38004490    -0.06400
C481        C  0.50350681  0.34429046  0.36324438    -0.17600
C482        C  0.51335490  0.31092147  0.38993740     0.10800
S483        S  0.55682548  0.42120028  0.45274943    -0.32600
S484        S  0.49531987  0.26796515  0.36558040    -0.32600
H485        H  0.47110065  0.28356860  0.32752845     0.28800
H486        H  0.52275833  0.43643562  0.46138408     0.28800
H487        H  0.56529961  0.34649642  0.48935187     0.19400
H488        H  0.48623128  0.34327363  0.32804001     0.19400
C489        C  0.51864831  0.13270200  0.84763609    -0.06500
C490        C  0.52019607  0.12448569  0.90406688    -0.17600
C491        C  0.53364821  0.15016609  0.94071169     0.10700
C492        C  0.54528171  0.18550846  0.92135025    -0.14800
C493        C  0.54628409  0.19288270  0.86501291    -0.17600
C494        C  0.53335077  0.16707731  0.82799061     0.10800
S495        S  0.53686870  0.13726502  0.01215562    -0.32600
S496        S  0.53724801  0.17836587  0.75604708    -0.32600
H497        H  0.55633643  0.21188085  0.76035245     0.28800
H498        H  0.52827697  0.09944409  0.00739733     0.28800
H499        H  0.51078660  0.09772445  0.91973156     0.19400
H500        H  0.55627940  0.21947589  0.84994054     0.19400
C501        C  0.51105051  0.13047354  0.34678459    -0.06500
C502        C  0.53364333  0.15930377  0.32766040    -0.17600
C503        C  0.54747105  0.18597546  0.36243714     0.10700
C504        C  0.53808028  0.18495380  0.41842665    -0.06400
C505        C  0.51685156  0.15462515  0.43757075    -0.17600
C506        C  0.50249681  0.12849490  0.40262926     0.10800
S507        S  0.57749361  0.21954979  0.33198331    -0.32600
S508        S  0.47146159  0.09469367  0.43137294    -0.32600
H509        H  0.45022709  0.09258918  0.38434971     0.28800
H510        H  0.60622471  0.20746774  0.36491429     0.28800
H511        H  0.54180203  0.16028339  0.28538203     0.19400
H512        H  0.50978769  0.15196295  0.48015498     0.19400
C513        C  0.50025540  0.99246984  0.45200779    -0.06500
C514        C  0.46627554  0.98380154  0.47406554    -0.17600
C515        C  0.45484018  0.99804700  0.52325753     0.10700
C516        C  0.47786048  0.02151876  0.55212308    -0.06400
C517        C  0.51171471  0.03035164  0.52991241    -0.17600
C518        C  0.52337032  0.01559757  0.48126851     0.10800
S519        S  0.41020022  0.98603069  0.54578321    -0.32600
S520        S  0.56882730  0.02559198  0.46107116    -0.32600
H521        H  0.57508287  0.99021196  0.44063384     0.28800
H522        H  0.40331408  0.02062120  0.56834708     0.28800
H523        H  0.44775305  0.96671753  0.45194026     0.19400
H524        H  0.53028135  0.04734796  0.55210924     0.19400
C525        C  0.49232395  0.01581759  0.05101210    -0.06500
C526        C  0.46373816  0.01231346  0.01490839    -0.17600
C527        C  0.46974524  0.00321101  0.96102838     0.10700
C528        C  0.50503641  0.99597307  0.94329538    -0.06400
C529        C  0.53369792  0.00012736  0.97908348    -0.17600
C530        C  0.52767022  0.00929097  0.03299082     0.10800
S531        S  0.43141037  0.00311917  0.91639854    -0.32600
S532        S  0.56592418  0.00955145  0.07758432    -0.32600
H533        H  0.54792214  0.99427203  0.12337633     0.28800
H534        H  0.44980677  0.01624477  0.86966170     0.28800
H535        H  0.43666607  0.01753523  0.02845812     0.19400
H536        H  0.56073708  0.99466072  0.96561578     0.19400
C537        C  0.30884793  0.95460701  0.80665923    -0.06500
C538        C  0.33224534  0.93689074  0.84324379    -0.17600
C539        C  0.36916726  0.93628370  0.83318082     0.10700
C540        C  0.38320015  0.95529642  0.78599127    -0.06400
C541        C  0.35920275  0.97256144  0.74922883    -0.17600
C542        C  0.32245897  0.97221702  0.75873098     0.10800
S543        S  0.39703520  0.91256564  0.88326031    -0.32600
S544        S  0.29449486  0.99599126  0.70878776    -0.32600
H545        H  0.26327901  0.97504786  0.71906112     0.28800
H546        H  0.37009164  0.88885052  0.90469016     0.28800
H547        H  0.32159689  0.92448018  0.88061016     0.19400
H548        H  0.36901374  0.98666029  0.71253427     0.19400
C549        C  0.31102288  0.92951581  0.26458112    -0.06500
C550        C  0.33190335  0.92209397  0.21911635    -0.17600
C551        C  0.36843587  0.93038498  0.21795537     0.10700
C552        C  0.38469784  0.94546432  0.26400003    -0.06400
C553        C  0.36459355  0.94943514  0.31148124    -0.17600
C554        C  0.32764896  0.94239767  0.31190323     0.10800
S555        S  0.39367881  0.92213769  0.15704774    -0.32600
S556        S  0.30163287  0.95418825  0.37051449    -0.32600
H557        H  0.33059103  0.96327391  0.40416203     0.28800
H558        H  0.36615084  0.90473890  0.12826855     0.28800
H559        H  0.31878273  0.91291377  0.18268880     0.19400
H560        H  0.37757932  0.95993269  0.34718200     0.19400
C561        C  0.10531780  0.96220394  0.77063244    -0.06500
C562        C  0.11423060  0.95714509  0.82581024    -0.17600
C563        C  0.14971452  0.95660591  0.84306533     0.10700
C564        C  0.17731389  0.95890468  0.80394316    -0.06400
C565        C  0.16865796  0.96472889  0.74886304    -0.17600
C566        C  0.13295848  0.96760484  0.73199186     0.10800
S567        S  0.15758363  0.95242898  0.91555286    -0.32600
S568        S  0.12450013  0.97833070  0.66122559    -0.32600
H569        H  0.10511689  0.01069926  0.67180915     0.28800
H570        H  0.19430075  0.94433186  0.91468676     0.28800
H571        H  0.09321831  0.95384072  0.85600768     0.19400
H572        H  0.18989300  0.96892371  0.71923882     0.19400
C573        C  0.10407613  0.94368881  0.27809830    -0.06500
C574        C  0.12345213  0.97583142  0.28868730    -0.17600
C575        C  0.16056873  0.97467428  0.29360035     0.10700
C576        C  0.17899181  0.94149886  0.28250349    -0.06400
C577        C  0.15950489  0.90858728  0.27726548    -0.17600
C578        C  0.12208746  0.90918970  0.27723711     0.10800
S579        S  0.18312272  0.01679283  0.31213228    -0.32600
S580        S  0.09898844  0.86567813  0.27123076    -0.32600
H581        H  0.08034096  0.86918810  0.32041199     0.28800
H582        H  0.21396271  0.99895361  0.33283491     0.28800
H583        H  0.10961851  0.00199221  0.29272028     0.19400
H584        H  0.17318405  0.88283832  0.26971453     0.19400
C585        C  0.99531469  0.01041060  0.53891603    -0.06500
C586        C  0.02470151  0.00233817  0.50602932    -0.17600
C587        C  0.01979690  0.99172943  0.45240000     0.10700
C588        C  0.98470688  0.98718289  0.43187691    -0.06400
C589        C  0.95538846  0.99541105  0.46439177    -0.17600
C590        C  0.96018878  0.00671277  0.51754109     0.10800
S591        S  0.05930870  0.98677859  0.41111968    -0.32600
S592        S  0.92010288  0.01383988  0.55650534    -0.32600
H593        H  0.93291189  0.99434396  0.60304811     0.28800
H594        H  0.04403674  0.00215179  0.36315613     0.28800
H595        H  0.05165012  0.00548495  0.52160390     0.19400
H596        H  0.92848405  0.99228029  0.44859590     0.19400
C597        C  0.98973865  0.97683756  0.93466183    -0.06500
C598        C  0.00090799  0.01365340  0.94111278    -0.17600
C599        C  0.01435574  0.02549762  0.99059605     0.10700
C600        C  0.01649642  0.00018107  0.03546265    -0.06400
C601        C  0.00723374  0.96278790  0.02829135    -0.17600
C602        C  0.99388277  0.95087944  0.97858262     0.10800
S603        S  0.02953315  0.07295388  0.99356704    -0.32600
S604        S  0.98144682  0.90262019  0.97454707    -0.32600
H605        H  0.95487843  0.90811988  0.93463239     0.28800
H606        H  0.05429253  0.06636163  0.03585352     0.28800
H607        H  0.00073939  0.03300573  0.90655233     0.19400
H608        H  0.00828899  0.94308006  0.06243020     0.19400
C609        C  0.95978993  0.30119365  0.90065877    -0.06500
C610        C  0.94597877  0.30083358  0.84759027    -0.17600
C611        C  0.95194334  0.33052844  0.81025515     0.10700
C612        C  0.97289630  0.36119807  0.82559853    -0.06400
C613        C  0.98576780  0.36196672  0.87929046    -0.17600
C614        C  0.97941211  0.33246513  0.91666004     0.10800
S615        S  0.93091147  0.32821333  0.74461388    -0.32600
S616        S  0.99604906  0.33593231  0.98492797    -0.32600
H617        H  0.03124824  0.34366835  0.96735083     0.28800
H618        H  0.92000232  0.36555925  0.74254240     0.28800
H619        H  0.93104203  0.27690454  0.83460479     0.19400
H620        H  0.00072831  0.38589588  0.89240268     0.19400
C621        C  0.94127585  0.17471309  0.90856811    -0.06500
C622        C  0.93997941  0.18177487  0.85229945    -0.17600
C623        C  0.94815490  0.15428261  0.81559967     0.10700
C624        C  0.95820764  0.11827753  0.83561046    -0.06400
C625        C  0.95546122  0.11040760  0.89205501    -0.17600
C626        C  0.94688648  0.13809548  0.92839998     0.10800
S627        S  0.94632418  0.16710565  0.74390898    -0.32600
S628        S  0.94483121  0.12578794  0.99993722    -0.32600
H629        H  0.92362362  0.15619063  0.01402178     0.28800
H630        H  0.92485537  0.19883868  0.74874264     0.28800
H631        H  0.93575893  0.20991922  0.83691217     0.19400
H632        H  0.96061708  0.08271442  0.90843362     0.19400
C633        C  0.93687817  0.32262750  0.36377983    -0.06500
C634        C  0.95294070  0.35199817  0.39123590    -0.17600
C635        C  0.95784454  0.38709496  0.36612855     0.10700
C636        C  0.94649565  0.39336292  0.31210485    -0.06400
C637        C  0.92888880  0.36493242  0.28513842    -0.17600
C638        C  0.92346519  0.32973415  0.31058849     0.10800
S639        S  0.98022703  0.42328918  0.40244742    -0.32600
S640        S  0.89937189  0.29489532  0.27432264    -0.32600
H641        H  0.90340883  0.31179683  0.22229306     0.28800
H642        H  0.98184543  0.40418382  0.45322256     0.28800
H643        H  0.96270404  0.34703389  0.43224103     0.19400
H644        H  0.91879261  0.37061637  0.24446778     0.19400
C645        C  0.96351022  0.12530195  0.31354705    -0.06500
C646        C  0.96832040  0.16062347  0.28845719    -0.17600
C647        C  0.95817865  0.19317913  0.31381220     0.10700
C648        C  0.94168343  0.19102331  0.36564337    -0.06400
C649        C  0.93659832  0.15586955  0.39089943    -0.17600
C650        C  0.94662267  0.12318482  0.36535000     0.10800
S651        S  0.97053399  0.23721941  0.28174335    -0.32600
S652        S  0.93656123  0.08004974  0.40127638    -0.32600
H653        H  0.92117611  0.06361297  0.35579941     0.28800
H654        H  0.97756267  0.22398273  0.22977582     0.28800
H655        H  0.98153222  0.16295273  0.24936844     0.19400
H656        H  0.92507242  0.15393117  0.43129877     0.19400
C657        C  0.67236573  0.06217085  0.67886811    -0.06500
C658        C  0.66223515  0.06862753  0.73252015    -0.17600
C659        C  0.62626855  0.06800276  0.74782312     0.10700
C660        C  0.59991960  0.06077517  0.70852393    -0.06400
C661        C  0.60985797  0.05817046  0.65384297    -0.17600
C662        C  0.64584727  0.05887049  0.63866734     0.10800
S663        S  0.61588927  0.07520458  0.81816971    -0.32600
S664        S  0.65657839  0.05193188  0.56847737    -0.32600
H665        H  0.68998239  0.06981237  0.57033999     0.28800
H666        H  0.58360073  0.09394841  0.80758275     0.28800
H667        H  0.68261454  0.07074903  0.76364220     0.19400
H668        H  0.58957780  0.05380507  0.62317072     0.19400
C669        C  0.80273664  0.03613591  0.67810697    -0.06500
C670        C  0.81655507  0.06240614  0.71328831    -0.17600
C671        C  0.85219360  0.06058683  0.73083745     0.10700
C672        C  0.87468649  0.03225774  0.71233903    -0.06400
C673        C  0.86122397  0.00665542  0.67624594    -0.17600
C674        C  0.82574460  0.00835009  0.65856509     0.10800
S675        S  0.86721237  0.09441608  0.77810665    -0.32600
S676        S  0.81194169  0.97386199  0.61119261    -0.32600
H677        H  0.78139665  0.99221955  0.59111215     0.28800
H678        H  0.89168728  0.07077027  0.80534593     0.28800
H679        H  0.79899984  0.08305054  0.72982727     0.19400
H680        H  0.87873476  0.98557325  0.66080508     0.19400
C681        C  0.60560592  0.05471313  0.22624141    -0.06500
C682        C  0.61824421  0.06153338  0.17289538    -0.17600
C683        C  0.65458138  0.05791974  0.16032647     0.10700
C684        C  0.67875226  0.04854843  0.20222038    -0.06400
C685        C  0.66678219  0.04575160  0.25615775    -0.17600
C686        C  0.63057384  0.04908270  0.26870469     0.10800
S687        S  0.66898903  0.06109637  0.09039278    -0.32600
S688        S  0.61816148  0.04572840  0.33936441    -0.32600
H689        H  0.59012794  0.07164703  0.33459917     0.28800
H690        H  0.63790534  0.07847816  0.06978149     0.28800
H691        H  0.59937227  0.06722936  0.14036150     0.19400
H692        H  0.68565638  0.03907741  0.28849515     0.19400
C693        C  0.80952984  0.03587274  0.18232571    -0.06500
C694        C  0.83148548  0.01913468  0.14411796    -0.17600
C695        C  0.86857346  0.01795502  0.15080944     0.10700
C696        C  0.88405011  0.03397605  0.19664933    -0.06400
C697        C  0.86226869  0.05157659  0.23419105    -0.17600
C698        C  0.82512622  0.05228917  0.22789810     0.10800
S699        S  0.89442626  0.99358649  0.10155242    -0.32600
S700        S  0.79911461  0.07243249  0.28101650    -0.32600
H701        H  0.77243342  0.04479079  0.28315683     0.28800
H702        H  0.92000567  0.97932186  0.13862132     0.28800
H703        H  0.81946155  0.00510595  0.11039872     0.19400
H704        H  0.87425085  0.06420727  0.26918856     0.19400
C705        C  0.45181801  0.69172487  0.59641179    -0.06500
C706        C  0.47063195  0.66179365  0.57463781    -0.17600
C707        C  0.48066175  0.63061870  0.60675081     0.10700
C708        C  0.47061362  0.62808622  0.66198631    -0.06400
C709        C  0.44944990  0.65644624  0.68275896    -0.17600
C710        C  0.43990001  0.68805967  0.65102161     0.10800
S711        S  0.50861795  0.59665002  0.57575350    -0.32600
S712        S  0.41422520  0.72369601  0.68269673    -0.32600
H713        H  0.40860585  0.70510851  0.73319162     0.28800
H714        H  0.53027432  0.59001695  0.62181553     0.28800
H715        H  0.47940688  0.66351827  0.53270096     0.19400
H716        H  0.44060556  0.65388048  0.72459837     0.19400
C717        C  0.45222956  0.81952965  0.58608816    -0.06500
C718        C  0.46718173  0.81198021  0.63751214    -0.17600
C719        C  0.47857869  0.84037342  0.67105425     0.10700
C720        C  0.47510216  0.87819160  0.65282850    -0.06400
C721        C  0.46093114  0.88547575  0.60026575    -0.17600
C722        C  0.44957258  0.85676741  0.56704731     0.10800
S723        S  0.49837131  0.82663022  0.73583037    -0.32600
S724        S  0.43167724  0.86931125  0.50095991    -0.32600
H725        H  0.40853212  0.83855261  0.49794603     0.28800
H726        H  0.48911384  0.78872548  0.73578706     0.28800
H727        H  0.47088071  0.78327795  0.65077063     0.19400
H728        H  0.45793969  0.91386442  0.58498608     0.19400
C729        C  0.45133331  0.69132451  0.09195083    -0.06500
C730        C  0.47300039  0.66257926  0.07261178    -0.17600
C731        C  0.48726279  0.63483653  0.10762722     0.10700
C732        C  0.47943395  0.63503594  0.16369542    -0.06400
C733        C  0.45593986  0.66197320  0.18246637    -0.17600
C734        C  0.44101041  0.68908600  0.14732767     0.10800
S735        S  0.51686823  0.60138169  0.07868135    -0.32600
S736        S  0.40800570  0.71850681  0.17615009    -0.32600
H737        H  0.38165005  0.70806921  0.13881826     0.28800
H738        H  0.53848453  0.59632688  0.12512504     0.28800
H739        H  0.48056820  0.66282516  0.03012957     0.19400
H740        H  0.44781994  0.66090763  0.22477592     0.19400
C741        C  0.44889512  0.81763914  0.08779389    -0.06500
C742        C  0.45583753  0.80941678  0.14293314    -0.17600
C743        C  0.46744956  0.83668105  0.17852450     0.10700
C744        C  0.47475176  0.87343458  0.15803373    -0.06400
C745        C  0.46823867  0.88128240  0.10224129    -0.17600
C746        C  0.45486903  0.85429381  0.06770000     0.10800
S747        S  0.47298333  0.82279892  0.24936951    -0.32600
S748        S  0.44651237  0.86808985  0.99779212    -0.32600
H749        H  0.41960994  0.84148524  0.98913577     0.28800
H750        H  0.45333654  0.78941583  0.24796754     0.28800
H751        H  0.45329671  0.78099886  0.15793692     0.19400
H752        H  0.47261443  0.90908658  0.08524542     0.19400
C753        C  0.87810012  0.44356729  0.70077003    -0.06500
C754        C  0.85556039  0.43750528  0.74578435    -0.17600
C755        C  0.81877429  0.43131246  0.73947424     0.10700
C756        C  0.80358245  0.43095729  0.68679287    -0.06400
C757        C  0.82637320  0.43459838  0.64167628    -0.17600
C758        C  0.86319452  0.44133330  0.64795013     0.10800
S759        S  0.79214807  0.42774903  0.80068012    -0.32600
S760        S  0.88871956  0.45091905  0.58693303    -0.32600
H761        H  0.90951074  0.47894370  0.60981370     0.28800
H762        H  0.76081660  0.41386163  0.77713401     0.28800
H763        H  0.86661265  0.43810812  0.78645629     0.19400
H764        H  0.81485749  0.43609567  0.60123983     0.19400
C765        C  0.66996502  0.43989383  0.68294321    -0.06500
C766        C  0.65948526  0.41882622  0.72941440    -0.17600
C767        C  0.62489153  0.42246327  0.75141123     0.10700
C768        C  0.60062276  0.44772441  0.72659702    -0.06400
C769        C  0.61017689  0.46652105  0.67809207    -0.17600
C770        C  0.64456702  0.46331384  0.65640475     0.10800
S771        S  0.61204556  0.39574152  0.81175552    -0.32600
S772        S  0.65631712  0.49093765  0.59620928    -0.32600
H773        H  0.62680140  0.51502775  0.59744764     0.28800
H774        H  0.64348708  0.37444459  0.81582017     0.28800
H775        H  0.67917155  0.40173647  0.75063642     0.19400
H776        H  0.59060707  0.48409282  0.65744464     0.19400
C777        C  0.86603462  0.46908617  0.17214174    -0.06500
C778        C  0.86402887  0.43010358  0.17047456    -0.17600
C779        C  0.83145508  0.41138356  0.18035893     0.10700
C780        C  0.80043589  0.43216012  0.19010720    -0.06400
C781        C  0.80144171  0.47088418  0.18023751    -0.17600
C782        C  0.83400769  0.48954643  0.17164006     0.10800
S783        S  0.83086141  0.36145787  0.18831938    -0.32600
S784        S  0.83375164  0.53956344  0.16634857    -0.32600
H785        H  0.86755409  0.54290421  0.14131324     0.28800
H786        H  0.86484938  0.35579083  0.16550982     0.28800
H787        H  0.88855418  0.41419105  0.16955363     0.19400
H788        H  0.77747344  0.48708059  0.18640297     0.19400
C789        C  0.67913448  0.41808232  0.25546067    -0.06500
C790        C  0.66506898  0.43870115  0.21090123    -0.17600
C791        C  0.63053652  0.45387454  0.21229151     0.10700
C792        C  0.60946856  0.44880326  0.25961192    -0.06400
C793        C  0.62313196  0.42757691  0.30370406    -0.17600
C794        C  0.65732756  0.41189301  0.30192938     0.10800
S795        S  0.61556511  0.48065439  0.15327415    -0.32600
S796        S  0.67187337  0.38460208  0.36064421    -0.32600
H797        H  0.69518284  0.36180301  0.33192790     0.28800
H798        H  0.58985071  0.50179692  0.17995178     0.28800
H799        H  0.68184338  0.44518409  0.17608961     0.19400
H800        H  0.60652146  0.42212771  0.33924672     0.19400
C801        C  0.08711143  0.81462509  0.64419852    -0.06500
C802        C  0.05050307  0.80930913  0.63303980    -0.17600
C803        C  0.02616843  0.83870045  0.63600654     0.10700
C804        C  0.03889268  0.87431354  0.64805755    -0.06400
C805        C  0.07606356  0.88055585  0.65008783    -0.17600
C806        C  0.10025974  0.85091717  0.64952851     0.10800
S807        S  0.97915506  0.82861210  0.62895281    -0.32600
S808        S  0.14720591  0.85881488  0.66263885    -0.32600
H809        H  0.14617891  0.89769404  0.65574734     0.28800
H810        H  0.96859489  0.86559152  0.61818566     0.28800
H811        H  0.04020627  0.78148570  0.62805012     0.19400
H812        H  0.08585479  0.90786353  0.65953780     0.19400
C813        C  0.07085144  0.69485918  0.67863271    -0.06500
C814        C  0.07813575  0.66342621  0.64881603    -0.17600
C815        C  0.05446533  0.63285370  0.64969651     0.10700
C816        C  0.02313513  0.63353159  0.68251170    -0.06400
C817        C  0.01387395  0.66700006  0.70620416    -0.17600
C818        C  0.03694223  0.69774559  0.70409709     0.10800
S819        S  0.06596751  0.59285899  0.61105639    -0.32600
S820        S  0.02249562  0.74014193  0.73470493    -0.32600
H821        H  0.98872813  0.72745633  0.75276736     0.28800
H822        H  0.09868096  0.60648882  0.59003365     0.28800
H823        H  0.10316356  0.66227662  0.62677703     0.19400
H824        H  0.98932288  0.66825142  0.72942220     0.19400
C825        C  0.02966946  0.86461093  0.15744470    -0.06500
C826        C  0.06524277  0.87047009  0.13966707    -0.17600
C827        C  0.08905681  0.84074941  0.13423793     0.10700
C828        C  0.07698377  0.80408182  0.14478016    -0.06400
C829        C  0.04004391  0.79810292  0.15358931    -0.17600
C830        C  0.01643735  0.82786005  0.16051202     0.10800
S831        S  0.13547848  0.85166997  0.12141000    -0.32600
S832        S  0.97039872  0.81718510  0.17662658    -0.32600
H833        H  0.95678921  0.85164162  0.15765630     0.28800
H834        H  0.14388792  0.81744030  0.09931209     0.28800
H835        H  0.07591042  0.89848627  0.13619724     0.19400
H836        H  0.03026114  0.77001333  0.16112149     0.19400
C837        C  0.08643043  0.67834050  0.16920296    -0.06500
C838        C  0.05151414  0.67302600  0.19019063    -0.17600
C839        C  0.03555198  0.63770171  0.19441829     0.10700
C840        C  0.05450295  0.60661553  0.17667817    -0.06400
C841        C  0.08746038  0.61275931  0.14970722    -0.17600
C842        C  0.10404962  0.64789274  0.14721324     0.10800
S843        S  0.99114512  0.63412172  0.22274567    -0.32600
S844        S  0.14919532  0.65220016  0.12176903    -0.32600
H845        H  0.14991434  0.61811902  0.09564068     0.28800
H846        H  0.98073159  0.60382152  0.19179326     0.28800
H847        H  0.03712395  0.69647104  0.20571160     0.19400
H848        H  0.10186154  0.58928687  0.13456045     0.19400
C849        C  0.74552926  0.09791449  0.64322488    -0.06500
C850        C  0.73580663  0.12873510  0.67334199    -0.17600
C851        C  0.73983354  0.16542147  0.65194269     0.10700
C852        C  0.75257694  0.17195247  0.59812704    -0.06400
C853        C  0.76185803  0.14066975  0.56830583    -0.17600
C854        C  0.75888911  0.10425769  0.59020957     0.10800
S855        S  0.73047238  0.20244854  0.69652543    -0.32600
S856        S  0.76972094  0.06582569  0.54833165    -0.32600
H857        H  0.78607458  0.08675080  0.50579340     0.28800
H858        H  0.76081776  0.22230869  0.67899483     0.28800
H859        H  0.72566037  0.12414418  0.71423694     0.19400
H860        H  0.77046752  0.14459954  0.52655790     0.19400
C861        C  0.74014507  0.31036081  0.61305228    -0.06500
C862        C  0.71681011  0.33655986  0.58890359    -0.17600
C863        C  0.71471647  0.37317777  0.60683003     0.10700
C864        C  0.73432620  0.38402285  0.65323654    -0.06400
C865        C  0.75536064  0.35673965  0.68010044    -0.17600
C866        C  0.75946551  0.32087715  0.65978885     0.10800
S867        S  0.69067933  0.40547038  0.56328653    -0.32600
S868        S  0.79103472  0.29087704  0.69484837    -0.32600
H869        H  0.80171892  0.27079723  0.64991252     0.28800
H870        H  0.71661390  0.43374678  0.56630501     0.28800
H871        H  0.70294773  0.32962997  0.55187997     0.19400
H872        H  0.77041708  0.36398582  0.71572575     0.19400
C873        C  0.67681308  0.24462211  0.49139334    -0.06500
C874        C  0.66402172  0.27145665  0.45318824    -0.17600
C875        C  0.62796631  0.27223797  0.43565160     0.10700
C876        C  0.60275469  0.24595444  0.45736840    -0.06400
C877        C  0.61593329  0.21871848  0.49500158    -0.17600
C878        C  0.65211198  0.21736166  0.51111374     0.10800
S879        S  0.61687542  0.30741186  0.38471794    -0.32600
S880        S  0.66521653  0.17847113  0.55430199    -0.32600
H881        H  0.69568319  0.17126133  0.52294738     0.28800
H882        H  0.58607805  0.29041994  0.36494599     0.28800
H883        H  0.68235432  0.29241122  0.43686218     0.19400
H884        H  0.59783557  0.19800677  0.51248504     0.19400
C885        C  0.81231741  0.25830440  0.45820444    -0.06500
C886        C  0.82266281  0.22771652  0.42754072    -0.17600
C887        C  0.85445653  0.22804147  0.39638458     0.10700
C888        C  0.87932420  0.25780206  0.40012683    -0.06400
C889        C  0.86633489  0.29012108  0.42454103    -0.17600
C890        C  0.83230691  0.29154771  0.44871503     0.10800
S891        S  0.85895868  0.19223707  0.34794575    -0.32600
S892        S  0.81411451  0.33744051  0.45609443    -0.32600
H893        H  0.77825944  0.32636175  0.44922703     0.28800
H894        H  0.87954937  0.21420797  0.31122059     0.28800
H895        H  0.80558140  0.20333704  0.42743446     0.19400
H896        H  0.88212985  0.31522496  0.42434618     0.19400
C897        C  0.75106559  0.16551814  0.11250772    -0.06500
C898        C  0.76179565  0.13510173  0.08181927    -0.17600
C899        C  0.75892000  0.09834372  0.10152584     0.10700
C900        C  0.74613816  0.09061697  0.15460898    -0.06400
C901        C  0.73364329  0.12030698  0.18479531    -0.17600
C902        C  0.73517575  0.15746703  0.16400249     0.10800
S903        S  0.77009705  0.06251484  0.05517606    -0.32600
S904        S  0.71595021  0.19345233  0.20340645    -0.32600
H905        H  0.70682553  0.17110469  0.24937695     0.28800
H906        H  0.74589667  0.03576373  0.07632274     0.28800
H907        H  0.77161188  0.13982459  0.04074956     0.19400
H908        H  0.72256503  0.11414884  0.22471105     0.19400
C909        C  0.74190109  0.30458956  0.12672971    -0.06500
C910        C  0.73191265  0.33843868  0.10046104    -0.17600
C911        C  0.73022570  0.37181594  0.12866131     0.10700
C912        C  0.73644048  0.37126884  0.18502315    -0.06400
C913        C  0.74455369  0.33717938  0.21178018    -0.17600
C914        C  0.74924779  0.30455202  0.18310308     0.10800
S915        S  0.72260094  0.41531521  0.09220092    -0.32600
S916        S  0.76937230  0.26591361  0.22004308    -0.32600
H917        H  0.78735953  0.25070144  0.17606441     0.28800
H918        H  0.71998076  0.40067339  0.04015278     0.28800
H919        H  0.72782622  0.33906917  0.05689600     0.19400
H920        H  0.75079926  0.33693175  0.25477087     0.19400
C921        C  0.68362742  0.23867008  0.99848778    -0.06500
C922        C  0.67289775  0.26447499  0.95724255    -0.17600
C923        C  0.63726005  0.26589893  0.93784179     0.10700
C924        C  0.61063861  0.24220856  0.96134713    -0.06400
C925        C  0.62172622  0.21600741  0.00177214    -0.17600
C926        C  0.65742705  0.21327174  0.01901207     0.10800
S927        S  0.62771251  0.29773985  0.88192925    -0.32600
S928        S  0.66787299  0.17455070  0.06410918    -0.32600
H929        H  0.69774336  0.16468867  0.03312352     0.28800
H930        H  0.60130791  0.27505891  0.85927978     0.28800
H931        H  0.69237465  0.28387740  0.93997002     0.19400
H932        H  0.60233839  0.19712463  0.02042860     0.19400
C933        C  0.82397733  0.24903540  0.98957259    -0.06500
C934        C  0.85343361  0.26239872  0.01945444    -0.17600
C935        C  0.88872340  0.26176731  0.00028081     0.10700
C936        C  0.89625965  0.24702589  0.94917869    -0.06400
C937        C  0.86759528  0.23313399  0.91898807    -0.17600
C938        C  0.83212981  0.23271198  0.93904190     0.10800
S939        S  0.92408367  0.27580129  0.04537829    -0.32600
S940        S  0.80029701  0.20688070  0.90046026    -0.32600
H941        H  0.78731098  0.18624102  0.94589772     0.28800
H942        H  0.90268441  0.29778849  0.07845679     0.28800
H943        H  0.84948822  0.27105135  0.06056783     0.19400
H944        H  0.87328179  0.22022947  0.88092050     0.19400
C945        C  0.31942698  0.74875016  0.51283188    -0.06500
C946        C  0.32928145  0.77750572  0.54686814    -0.17600
C947        C  0.36331998  0.77890303  0.57113773     0.10700
C948        C  0.38939948  0.75154223  0.55970699    -0.06400
C949        C  0.37796410  0.72108211  0.52925067    -0.17600
C950        C  0.34384715  0.71963157  0.50572989     0.10800
S951        S  0.37068942  0.81619565  0.61650653    -0.32600
S952        S  0.33498843  0.68242800  0.46101419    -0.32600
H953        H  0.32856339  0.70727432  0.41683428     0.28800
H954        H  0.39452625  0.79633495  0.65033919     0.28800
H955        H  0.31042016  0.79967553  0.55360397     0.19400
H956        H  0.39659455  0.69938863  0.51956139     0.19400
C957        C  0.19102722  0.74107834  0.52748999    -0.06500
C958        C  0.15514333  0.74364130  0.50972276    -0.17600
C959        C  0.12641260  0.74346963  0.54647061     0.10700
C960        C  0.13311913  0.74077011  0.60257590    -0.06400
C961        C  0.16872937  0.73553916  0.62045495    -0.17600
C962        C  0.19766714  0.73565418  0.58371747     0.10800
S963        S  0.08177586  0.74886703  0.51990407    -0.32600
S964        S  0.24280734  0.73276230  0.60984735    -0.32600
H965        H  0.23366150  0.72469740  0.66444582     0.28800
H966        H  0.06449674  0.73079510  0.56422807     0.28800
H967        H  0.14946812  0.74710158  0.46668790     0.19400
H968        H  0.17390336  0.73375819  0.66371247     0.19400
C969        C  0.25051570  0.67420091  0.40204114    -0.06500
C970        C  0.23169420  0.64888838  0.43614549    -0.17600
C971        C  0.23223308  0.61041285  0.42836500     0.10700
C972        C  0.25072313  0.59609995  0.38341144    -0.06400
C973        C  0.26823474  0.62157836  0.34764400    -0.17600
C974        C  0.26899837  0.66009983  0.35685843     0.10800
S975        S  0.21205205  0.58010041  0.47974203    -0.32600
S976        S  0.29660310  0.68985035  0.31342883    -0.32600
H977        H  0.30205767  0.66430599  0.27237650     0.28800
H978        H  0.19710109  0.60766205  0.51171606     0.28800
H979        H  0.21718750  0.65930090  0.47039283     0.19400
H980        H  0.28242776  0.61109158  0.31322951     0.19400
C981        C  0.24555563  0.81910092  0.37432333    -0.06500
C982        C  0.24765639  0.81900305  0.31706238    -0.17600
C983        C  0.24669136  0.85210815  0.28501153     0.10700
C984        C  0.24299466  0.88664983  0.30976687    -0.06400
C985        C  0.23971673  0.88708993  0.36615482    -0.17600
C986        C  0.24257809  0.85437847  0.39876130     0.10800
S987        S  0.25013638  0.84848021  0.21238863    -0.32600
S988        S  0.24376508  0.85906182  0.47174429    -0.32600
H989        H  0.24983103  0.89764994  0.47135166     0.28800
H990        H  0.22953560  0.88004164  0.19894152     0.28800
H991        H  0.25096070  0.79340978  0.29629263     0.19400
H992        H  0.23602963  0.91354396  0.38475578     0.19400
C993        C  0.31819095  0.74946833  0.99452020    -0.06500
C994        C  0.32653773  0.77595985  0.03313133    -0.17600
C995        C  0.35998188  0.77677916  0.05963750     0.10700
C996        C  0.38720479  0.75095272  0.04680479    -0.06400
C997        C  0.37776635  0.72311513  0.00988168    -0.17600
C998        C  0.34422627  0.72245416  0.98355045     0.10800
S999        S  0.36530394  0.81169376  0.10937915    -0.32600
S1000       S  0.33738524  0.68829908  0.93288438    -0.32600
H1001       H  0.32294946  0.71363779  0.89409162     0.28800
H1002       H  0.38548901  0.78914579  0.14507160     0.28800
H1003       H  0.30679393  0.79684004  0.04213045     0.19400
H1004       H  0.39738251  0.70277500  0.99852952     0.19400
C1005       C  0.13580802  0.74137817  0.09828293    -0.06500
C1006       C  0.12682889  0.74021365  0.04319185    -0.17600
C1007       C  0.15330893  0.74105648  0.00240356     0.10700
C1008       C  0.19023424  0.74349185  0.01640911    -0.06400
C1009       C  0.19932921  0.74350859  0.07157523    -0.17600
C1010       C  0.17279856  0.74281886  0.11247919     0.10800
S1011       S  0.13767956  0.73898252  0.93320689    -0.32600
S1012       S  0.18671155  0.74479772  0.18258843    -0.32600
H1013       H  0.22352501  0.75008412  0.17288087     0.28800
H1014       H  0.16956642  0.72631046  0.91039190     0.28800
H1015       H  0.09883082  0.73895491  0.03188780     0.19400
H1016       H  0.22732710  0.74574676  0.08245006     0.19400
C1017       C  0.24420856  0.68053670  0.87706113    -0.06500
C1018       C  0.26214978  0.67381061  0.82800808    -0.17600
C1019       C  0.26038102  0.63920121  0.80316315     0.10700
C1020       C  0.24100199  0.60938107  0.82845631    -0.06400
C1021       C  0.22302451  0.61604526  0.87718722    -0.17600
C1022       C  0.22390638  0.65095573  0.90127949     0.10800
S1023       S  0.28193980  0.63636346  0.73796951    -0.32600
S1024       S  0.19754619  0.65689778  0.96167479    -0.32600
H1025       H  0.17564495  0.62534479  0.95641258     0.28800
H1026       H  0.26325722  0.60510450  0.72065393     0.28800
H1027       H  0.27751959  0.69601317  0.80826831     0.19400
H1028       H  0.20852059  0.59334449  0.89701097     0.19400
C1029       C  0.24017768  0.89839924  0.81796927    -0.06500
C1030       C  0.20897427  0.88051641  0.83819969    -0.17600
C1031       C  0.20828711  0.84267115  0.85367828     0.10700
C1032       C  0.24092056  0.82323716  0.86040879    -0.06400
C1033       C  0.27063852  0.83853617  0.83204564    -0.17600
C1034       C  0.26922523  0.87435324  0.80671599     0.10800
S1035       S  0.16547444  0.81903896  0.85629862    -0.32600
S1036       S  0.29875131  0.88232975  0.74974642    -0.32600
H1037       H  0.27605605  0.90826202  0.72327612     0.28800
H1038       H  0.14493662  0.84836088  0.83355606     0.28800
H1039       H  0.18446690  0.89523351  0.84215078     0.19400
H1040       H  0.29441271  0.82183590  0.82731043     0.19400
loop_ 
_geom_bond_atom_site_label_1 
_geom_bond_atom_site_label_2 
_geom_bond_distance 
_geom_bond_site_symmetry_2 
_ccdc_geom_bond_type 
C1            C2   1.541       .  S
C1            C7   1.543       .  S
C1            C5   1.538       .  S
C1         C1032   1.552       .  S
C2            H9   1.083       .  S
C2            C3   1.360       .  D
C3            C4   1.557       .  S
C3         C1008   1.504   1_556  S
C4            C8   1.557       .  S
C4            C6   1.561       .  S
C4           H10   1.109       .  S
C5           H11   1.086       .  S
C5            C6   1.366       .  D
C6          C993   1.506       .  S
C7           H12   1.086       .  S
C7            C8   1.378       .  D
C8         C1017   1.515       .  S
C13          C14   1.558       .  S
C13          C19   1.532       .  S
C13          C17   1.533       .  S
C13         C981   1.550       .  S
C14          H21   1.081       .  S
C14          C15   1.378       .  D
C15          C16   1.551       .  S
C15         C969   1.511       .  S
C16          C20   1.547       .  S
C16          C18   1.552       .  S
C16          H22   1.109       .  S
C17          H23   1.086       .  S
C17          C18   1.365       .  D
C18         C957   1.501       .  S
C19          H24   1.087       .  S
C19          C20   1.360       .  D
C20         C945   1.494       .  S
C25          C26   1.534       .  S
C25          C31   1.557   1_554  S
C25          C29   1.529       .  S
C25         C933   1.557   1_554  S
C26          H33   1.087       .  S
C26          C27   1.358       .  D
C27          C28   1.559       .  S
C27         C909   1.497       .  S
C28          C32   1.553       .  S
C28          C30   1.561       .  S
C28          H34   1.106       .  S
C29          H35   1.087       .  S
C29          C30   1.367       .  D
C30         C897   1.519       .  S
C31          H36   1.082       .  S
C31          C32   1.381   1_556  D
C32         C921   1.515   1_554  S
C37          C38   1.547       .  S
C37          C43   1.536       .  S
C37          C41   1.540       .  S
C37         C885   1.560       .  S
C38          H45   1.086       .  S
C38          C39   1.376       .  D
C39          C40   1.554       .  S
C39         C873   1.519       .  S
C40          C44   1.565       .  S
C40          C42   1.559       .  S
C40          H46   1.108       .  S
C41          H47   1.080       .  S
C41          C42   1.363       .  D
C42         C861   1.504       .  S
C43          H48   1.086       .  S
C43          C44   1.372       .  D
C44         C852   1.518       .  S
N49          C53   1.365       .  A
N49          C50   1.365       .  A
N49        C1005   1.457       .  S
C50          C51   1.382       .  A
C50         C837   1.492       .  S
C51          C52   1.364       .  A
C51          H54   1.083       .  S
C52          C53   1.384       .  A
C52          H55   1.081       .  S
C53         C828   1.491       .  S
N56          C60   1.356       .  A
N56          C57   1.356       .  A
N56         C960   1.448       .  S
C57          C58   1.384       .  A
C57         C801   1.480       .  S
C58          C59   1.369       .  A
C58          H61   1.083       .  S
C59          C60   1.383       .  A
C59          H62   1.083       .  S
C60         C813   1.488       .  S
N63          C67   1.361       .  A
N63          C64   1.365       .  A
N63         C912   1.449       .  S
C64          C65   1.382       .  A
C64         C789   1.486       .  S
C65          C66   1.362       .  A
C65          H68   1.082       .  S
C66          C67   1.380       .  A
C66          H69   1.083       .  S
C67         C780   1.481       .  S
N70          C74   1.370       .  A
N70          C71   1.371       .  A
N70         C864   1.464       .  S
C71          C72   1.377       .  A
C71         C756   1.478       .  S
C72          C73   1.358       .  A
C72          H75   1.083       .  S
C73          C74   1.382       .  A
C73          H76   1.083       .  S
C74         C765   1.480       .  S
N77          C81   1.373       .  A
N77          C78   1.370       .  A
N77         C996   1.475       .  S
C78          C79   1.383       .  A
C78         C729   1.502       .  S
C79          C80   1.360       .  A
C79          H82   1.082       .  S
C80          C81   1.382       .  A
C80          H83   1.083       .  S
C81         C741   1.495       .  S
N84          C88   1.367       .  A
N84          C85   1.370       .  A
N84         C948   1.467       .  S
C85          C86   1.383       .  A
C85         C717   1.488       .  S
C86          C87   1.365       .  A
C86          H89   1.083       .  S
C87          C88   1.381       .  A
C87          H90   1.082       .  S
C88         C705   1.502       .  S
N91          C95   1.359       .  A
N91          C92   1.356       .  A
N91         C900   1.450       .  S
C92          C93   1.381   1_545  A
C92         C684   1.465       .  S
C93          C94   1.367       .  A
C93          H96   1.082       .  S
C94          C95   1.380   1_565  A
C94          H97   1.082       .  S
C95         C693   1.466       .  S
N98         C102   1.356       .  A
N98          C99   1.364       .  A
N98         C849   1.452       .  S
C99         C100   1.383   1_545  A
C99         C669   1.476       .  S
C100        C101   1.362   1_565  A
C100        H103   1.082       .  S
C101        C102   1.378       .  A
C101        H104   1.083   1_545  S
C102        C657   1.462       .  S
N105        C109   1.377       .  A
N105        C106   1.371       .  A
N105        C888   1.477       .  S
C106        C107   1.380       .  A
C106        C633   1.496       .  S
C107        C108   1.358       .  A
C107        H110   1.082       .  S
C108        C109   1.382       .  A
C108        H111   1.083       .  S
C109        C648   1.492       .  S
N112        C116   1.359       .  A
N112        C113   1.358       .  A
N112        C936   1.452       .  S
C113        C114   1.384       .  A
C113        C621   1.479       .  S
C114        C115   1.368       .  A
C114        H117   1.083   1_655  S
C115        C116   1.382       .  A
C115        H118   1.082   1_655  S
C116        C609   1.483       .  S
O119       Ni125   1.934       .  S
O119        C140   1.274   1_655  A
O120       Ni143   1.889   1_565  S
O120        C129   1.263       .  A
O121       Ni125   1.904   1_455  S
O121       Ni143   1.894   1_455  S
O121       Ni137   1.917   1_545  S
O121        H144   0.966       .  S
C122        C825   1.493       .  S
C122        O139   1.272       .  A
C122        O131   1.280   1_455  A
O123       Ni142   1.934       .  S
O123        C129   1.272       .  A
O124       Ni142   1.893   1_455  S
O124        C126   1.265       .  A
Ni125       O128   1.939       .  S
Ni125       O130   1.893       .  S
C126        C573   1.467       .  S
C126        O136   1.279       .  A
O127       Ni143   1.920       .  S
O127        C133   1.276       .  A
O128        C133   1.281       .  A
C129        C588   1.469       .  S
O130        C132   1.266       .  A
O131       Ni142   1.939       .  S
C132        C696   1.461       .  S
C132        O138   1.272       .  A
C133        C645   1.501       .  S
H134        O135   0.966       .  S
O135       Ni143   1.923   1_565  S
O135       Ni137   1.891   1_655  S
O135       Ni142   1.911       .  S
O136       Ni137   1.933       .  S
Ni137       O141   1.892       .  S
Ni137       O139   1.915       .  S
O138       Ni143   1.926       .  S
C140        C600   1.477       .  S
C140        O141   1.268   1_545  A
O145       Ni151   1.929       .  S
O145        C166   1.273   1_655  A
O146       Ni169   1.899   1_565  S
O146        C155   1.271       .  A
O147       Ni151   1.889       .  S
O147       Ni169   1.886       .  S
O147       Ni163   1.913   1_645  S
O147        H170   0.966   1_655  S
C148        C804   1.475       .  S
C148        O165   1.274       .  A
C148        O157   1.276       .  A
O149       Ni168   1.928       .  S
O149        C155   1.271   1_455  A
O150       Ni168   1.900       .  S
O150        C152   1.271       .  A
Ni151       O154   1.924       .  S
Ni151       O156   1.897       .  S
C152        C561   1.473       .  S
C152        O162   1.274       .  A
O153       Ni169   1.922       .  S
O153        C159   1.277       .  A
O154        C159   1.277       .  A
C155        C597   1.476       .  S
O156        C158   1.268       .  A
O157       Ni168   1.925       .  S
C158        C672   1.465       .  S
C158        O164   1.279       .  A
C159        C624   1.497       .  S
H160        O161   0.966       .  S
O161       Ni169   1.923   1_565  S
O161       Ni163   1.900   1_655  S
O161       Ni168   1.902   1_655  S
O162       Ni163   1.927       .  S
Ni163       O167   1.895   1_565  S
Ni163       O165   1.920       .  S
O164       Ni169   1.939       .  S
C166        C585   1.479   1_455  S
C166        O167   1.269       .  A
N171        C175   1.359       .  A
N171        C172   1.357       .  A
N171        C984   1.447       .  S
C172        C173   1.379       .  A
C172        C549   1.466       .  S
C173        C174   1.361       .  A
C173        H176   1.083       .  S
C174        C175   1.383       .  A
C174        H177   1.082       .  S
C175        C576   1.472       .  S
N178        C182   1.371       .  A
N178        C179   1.372       .  A
N178       C1029   1.479       .  S
C179        C180   1.376       .  A
C179        C564   1.466       .  S
C180        C181   1.355       .  A
C180        H183   1.083   1_565  S
C181        C182   1.380       .  A
C181        H184   1.083   1_565  S
C182        C537   1.464       .  S
O185       Ni191   1.937       .  S
O185        C206   1.274       .  A
O186       Ni209   1.891   1_545  S
O186        C195   1.264       .  A
O187       Ni191   1.908       .  S
O187       Ni209   1.893       .  S
O187       Ni203   1.914   1_565  S
O187        H210   0.966       .  S
C188        C501   1.489       .  S
C188        O205   1.272       .  A
C188        O197   1.280       .  A
O189       Ni208   1.938       .  S
O189        C195   1.273       .  A
O190       Ni208   1.891       .  S
O190        C192   1.266       .  A
Ni191       O194   1.940       .  S
Ni191       O196   1.891       .  S
C192        C681   1.476       .  S
C192        O202   1.277       .  A
O193       Ni209   1.921       .  S
O193        C199   1.278       .  A
O194        C199   1.279       .  A
C195        C525   1.468       .  S
O196        C198   1.265       .  A
O197       Ni208   1.940       .  S
C198        C552   1.468       .  S
C198        O204   1.276       .  A
C199        C744   1.509       .  S
H200        O201   0.967       .  S
O201       Ni209   1.922   1_545  S
O201       Ni203   1.893       .  S
O201       Ni208   1.918       .  S
O202       Ni203   1.934       .  S
Ni203       O207   1.890       .  S
Ni203       O205   1.910       .  S
O204       Ni209   1.930       .  S
C206        C513   1.487       .  S
C206        O207   1.265   1_565  A
O211       Ni217   1.931       .  S
O211        C232   1.272       .  A
O212       Ni235   1.888   1_545  S
O212        C221   1.266       .  A
O213       Ni217   1.902       .  S
O213       Ni235   1.885       .  S
O213       Ni229   1.911   1_565  S
O213        H236   0.967       .  S
C214        C489   1.502       .  S
C214        O231   1.273       .  A
C214        O223   1.281       .  A
O215       Ni234   1.938       .  S
O215        C221   1.276       .  A
O216       Ni234   1.889       .  S
O216        C218   1.266       .  A
Ni217       O220   1.926       .  S
Ni217       O222   1.896       .  S
C218        C660   1.464       .  S
C218        O228   1.277       .  A
O219       Ni235   1.932       .  S
O219        C225   1.281       .  A
O220        C225   1.278       .  A
C221        C516   1.485       .  S
O222        C224   1.264       .  A
O223       Ni234   1.946       .  S
C224        C540   1.488       .  S
C224        O230   1.275       .  A
C225        C720   1.505       .  S
H226        O227   0.966       .  S
O227       Ni235   1.927   1_545  S
O227       Ni229   1.892       .  S
O227       Ni234   1.908       .  S
O228       Ni229   1.931       .  S
Ni229       O233   1.887       .  S
Ni229       O231   1.909       .  S
O230       Ni235   1.927       .  S
C232        C528   1.468       .  S
C232        O233   1.264   1_565  A
N237        C241   1.374       .  A
N237        C238   1.371       .  A
N237        C876   1.471       .  S
C238        C239   1.379       .  A
C238        C477   1.490       .  S
C239        C240   1.362       .  A
C239        H242   1.083       .  S
C240        C241   1.388       .  A
C240        H243   1.081       .  S
C241        C504   1.516       .  S
N244        C248   1.367       .  A
N244        C245   1.366       .  A
N244        C924   1.464       .  S
C245        C246   1.379       .  A
C245        C492   1.493       .  S
C246        C247   1.367       .  A
C246        H249   1.082   1_556  S
C247        C248   1.385       .  A
C247        H250   1.083   1_556  S
C248        C465   1.488       .  S
O251       Ni257   1.941       .  S
O251        C272   1.277       .  A
O252       Ni275   1.918       .  S
O252        C261   1.272   1_455  A
O253       Ni257   1.898       .  S
O253       Ni275   1.896       .  S
O253       Ni269   1.908   1_455  S
O253        H276   0.966       .  S
C254        C777   1.479       .  S
C254        O271   1.270       .  A
C254        O263   1.275       .  A
O255       Ni274   1.921       .  S
O255        C261   1.270       .  A
O256       Ni274   1.906       .  S
O256        C258   1.269       .  A
Ni257       O260   1.941       .  S
Ni257       O262   1.901       .  S
C258        C636   1.472       .  S
C258        O268   1.276       .  A
O259       Ni275   1.904       .  S
O259        C265   1.273       .  A
O260        C265   1.281       .  A
C261        C441   1.490       .  S
O262        C264   1.270       .  A
O263       Ni274   1.923       .  S
C264        C840   1.494       .  S
C264        O270   1.283       .  A
C265        C429   1.481       .  S
H266        O267   0.960       .  S
O267       Ni275   1.923   1_655  S
O267       Ni269   1.908       .  S
O267       Ni274   1.905       .  S
O268       Ni269   1.934       .  S
Ni269       O273   1.894       .  S
Ni269       O271   1.915       .  S
O270       Ni275   1.957       .  S
C272        C453   1.477   1_455  S
C272        O273   1.267   1_455  A
O277       Ni283   1.939       .  S
O277        C298   1.272       .  A
O278       Ni301   1.906       .  S
O278        C287   1.269       .  A
O279       Ni283   1.906       .  S
O279       Ni301   1.901   1_655  S
O279       Ni295   1.907       .  S
O279        H302   0.966       .  S
C280        C612   1.482       .  S
C280        O297   1.268       .  A
C280        O289   1.284       .  A
O281       Ni300   1.948       .  S
O281        C287   1.280   1_655  A
O282       Ni300   1.905       .  S
O282        C284   1.268       .  A
Ni283       O286   1.927       .  S
Ni283       O288   1.897   1_655  S
C284        C753   1.489       .  S
C284        O294   1.280       .  A
O285       Ni301   1.919       .  S
O285        C291   1.277       .  A
O286        C291   1.282   1_655  A
C287        C444   1.483       .  S
O288        C290   1.266       .  A
O289       Ni300   1.953       .  S
C290        C417   1.477       .  S
C290        O296   1.277       .  A
C291        C816   1.492       .  S
H292        O293   0.967       .  S
O293       Ni301   1.918       .  S
O293       Ni295   1.891   1_455  S
O293       Ni300   1.905   1_455  S
O294       Ni295   1.943       .  S
Ni295       O299   1.892       .  S
Ni295       O297   1.892       .  S
O296       Ni301   1.937       .  S
C298        C456   1.474       .  S
C298        O299   1.262       .  A
N303        C307   1.366       .  A
N303        C304   1.361       .  A
N303        C972   1.461       .  S
C304        C305   1.378       .  A
C304        C405   1.472       .  S
C305        C306   1.365       .  A
C305        H308   1.082       .  S
C306        C307   1.384       .  A
C306        H309   1.082       .  S
C307        C432   1.478       .  S
N310        C314   1.365       .  A
N310        C311   1.365       .  A
N310       C1020   1.456       .  S
C311        C312   1.379       .  A
C311        C420   1.472       .  S
C312        C313   1.361       .  A
C312        H315   1.083       .  S
C313        C314   1.381       .  A
C313        H316   1.083       .  S
C314        C396   1.470       .  S
O317       Ni323   1.925       .  S
O317        C338   1.272       .  A
O318       Ni341   1.895       .  S
O318        C327   1.268       .  A
O319       Ni323   1.895       .  S
O319       Ni341   1.892       .  S
O319       Ni335   1.911       .  S
O319        H342   0.966       .  S
C320        C732   1.479       .  S
C320        O337   1.271       .  A
C320        O329   1.279       .  A
O321       Ni340   1.931       .  S
O321        C327   1.272       .  A
O322       Ni340   1.894       .  S
O322        C324   1.267       .  A
Ni323       O326   1.924       .  S
Ni323       O328   1.897       .  S
C324        C408   1.488       .  S
C324        O334   1.280       .  A
O325       Ni341   1.929       .  S
O325        C331   1.278       .  A
O326        C331   1.280       .  A
C327        C369   1.474       .  S
O328        C330   1.266       .  A
O329       Ni340   1.930       .  S
C330        C792   1.474       .  S
C330        O336   1.279       .  A
C331        C480   1.499       .  S
H332        O333   0.966       .  S
O333       Ni341   1.924       .  S
O333       Ni335   1.897       .  S
O333       Ni340   1.912       .  S
O334       Ni335   1.948       .  S
Ni335       O339   1.897       .  S
Ni335       O337   1.908       .  S
O336       Ni341   1.943       .  S
C338        C384   1.491       .  S
C338        O339   1.268       .  A
O343       Ni349   1.934       .  S
O343        C364   1.273       .  A
O344       Ni367   1.905       .  S
O344        C353   1.274       .  A
O345       Ni349   1.901       .  S
O345       Ni367   1.891       .  S
O345       Ni361   1.916       .  S
O345        H368   0.967       .  S
C346        C708   1.486       .  S
C346        O363   1.275       .  A
C346        O355   1.278       .  A
O347       Ni366   1.916       .  S
O347        C353   1.272       .  A
O348       Ni366   1.903       .  S
O348        C350   1.267       .  A
Ni349       O352   1.926       .  S
Ni349       O354   1.890       .  S
C350        C393   1.478       .  S
C350        O360   1.275       .  A
O351       Ni367   1.927       .  S
O351        C357   1.279       .  A
O352        C357   1.278       .  A
C353        C381   1.491       .  S
O354        C356   1.265       .  A
O355       Ni366   1.926       .  S
C356        C768   1.470       .  S
C356        O362   1.283       .  A
C357        C468   1.504       .  S
H358        O359   0.966       .  S
O359       Ni367   1.926       .  S
O359       Ni361   1.890       .  S
O359       Ni366   1.905       .  S
O360       Ni361   1.926       .  S
Ni361       O365   1.888       .  S
Ni361       O363   1.921       .  S
O362       Ni367   1.953       .  S
C364        C372   1.475       .  S
C364        O365   1.263       .  A
C369        C370   1.407       .  A
C369        C374   1.407       .  A
C370        C371   1.398       .  A
C370        H379   1.084       .  S
C371        C372   1.410       .  A
C371        S375   1.803       .  S
C372        C373   1.408       .  A
C373        C374   1.398       .  A
C373        H380   1.084       .  S
C374        S376   1.803       .  S
S375        H378   1.406       .  S
S376        H377   1.406       .  S
C381        C382   1.414       .  A
C381        C386   1.410       .  A
C382        C383   1.398   1_556  A
C382        H391   1.083       .  S
C383        C384   1.413       .  A
C383        S387   1.803       .  S
C384        C385   1.413       .  A
C385        C386   1.399   1_554  A
C385        H392   1.083       .  S
C386        S388   1.802       .  S
S387        H390   1.407       .  S
S388        H389   1.407       .  S
C393        C394   1.410       .  A
C393        C398   1.412       .  A
C394        C395   1.407       .  A
C394        H403   1.083       .  S
C395        C396   1.405       .  A
C395        S399   1.804       .  S
C396        C397   1.401       .  A
C397        C398   1.394       .  A
C397        H404   1.083       .  S
C398        S400   1.810       .  S
S399        H402   1.407       .  S
S400        H401   1.406       .  S
C405        C406   1.405       .  A
C405        C410   1.400       .  A
C406        C407   1.401       .  A
C406        H415   1.084       .  S
C407        C408   1.413       .  A
C407        S411   1.802       .  S
C408        C409   1.413       .  A
C409        C410   1.401       .  A
C409        H416   1.082       .  S
C410        S412   1.806       .  S
S411        H414   1.408       .  S
S412        H413   1.407       .  S
C417        C418   1.402       .  A
C417        C422   1.416       .  A
C418        C419   1.397       .  A
C418        H427   1.082       .  S
C419        C420   1.410       .  A
C419        S423   1.799       .  S
C420        C421   1.403       .  A
C421        C422   1.401       .  A
C421        H428   1.084       .  S
C422        S424   1.804       .  S
S423        H426   1.404       .  S
S424        H425   1.406       .  S
C429        C430   1.403       .  A
C429        C434   1.413       .  A
C430        C431   1.400       .  A
C430        H439   1.084       .  S
C431        C432   1.418       .  A
C431        S435   1.808       .  S
C432        C433   1.401       .  A
C433        C434   1.399       .  A
C433        H440   1.083       .  S
C434        S436   1.802       .  S
S435        H438   1.400       .  S
S436        H437   1.407       .  S
C441        C442   1.409   1_655  A
C441        C446   1.416       .  A
C442        C443   1.411       .  A
C442        H451   1.084       .  S
C443        C444   1.415       .  A
C443        S447   1.802       .  S
C444        C445   1.400   1_455  A
C445        C446   1.395       .  A
C445        H452   1.082       .  S
C446        S448   1.804       .  S
S447        H450   1.404       .  S
S448        H449   1.407       .  S
C453        C454   1.407       .  A
C453        C458   1.409   1_655  A
C454        C455   1.403   1_554  A
C454        H463   1.082       .  S
C455        C456   1.410       .  A
C455        S459   1.803       .  S
C456        C457   1.404   1_655  A
C457        C458   1.398   1_556  A
C457        H464   1.084       .  S
C458        S460   1.802       .  S
S459        H462   1.403       .  S
S460        H461   1.407       .  S
C465        C466   1.402       .  A
C465        C470   1.409       .  A
C466        C467   1.397       .  A
C466        H475   1.080       .  S
C467        C468   1.422       .  A
C467        S471   1.802       .  S
C468        C469   1.415       .  A
C469        C470   1.407       .  A
C469        H476   1.081       .  S
C470        S472   1.802   1_556  S
S471        H474   1.408       .  S
S472        H473   1.407       .  S
C477        C478   1.401       .  A
C477        C482   1.416       .  A
C478        C479   1.407       .  A
C478        H487   1.084       .  S
C479        C480   1.422       .  A
C479        S483   1.794       .  S
C480        C481   1.405       .  A
C481        C482   1.400       .  A
C481        H488   1.082       .  S
C482        S484   1.807       .  S
S483        H486   1.407       .  S
S484        H485   1.406       .  S
C489        C490   1.412       .  A
C489        C494   1.421       .  A
C490        C491   1.406       .  A
C490        H499   1.083       .  S
C491        C492   1.410       .  A
C491        S495   1.807   1_556  S
C492        C493   1.404       .  A
C493        C494   1.409       .  A
C493        H500   1.080       .  S
C494        S496   1.809       .  S
S495        H498   1.407       .  S
S496        H497   1.407       .  S
C501        C502   1.404       .  A
C501        C506   1.411       .  A
C502        C503   1.406       .  A
C502        H511   1.084       .  S
C503        C504   1.422       .  A
C503        S507   1.791       .  S
C504        C505   1.414       .  A
C505        C506   1.403       .  A
C505        H512   1.082       .  S
C506        S508   1.804       .  S
S507        H510   1.406       .  S
S508        H509   1.407       .  S
C513        C514   1.410       .  A
C513        C518   1.413   1_565  A
C514        C515   1.400       .  A
C514        H523   1.084       .  S
C515        C516   1.413   1_565  A
C515        S519   1.803       .  S
C516        C517   1.408       .  A
C517        C518   1.398       .  A
C517        H524   1.084       .  S
C518        S520   1.800       .  S
S519        H522   1.407   1_565  S
S520        H521   1.407   1_545  S
C525        C526   1.397       .  A
C525        C530   1.416       .  A
C526        C527   1.396   1_554  A
C526        H535   1.084       .  S
C527        C528   1.417   1_545  A
C527        S531   1.805       .  S
C528        C529   1.397   1_565  A
C529        C530   1.398   1_556  A
C529        H536   1.084   1_545  S
C530        S532   1.802       .  S
S531        H534   1.407       .  S
S532        H533   1.407   1_545  S
C537        C538   1.395       .  A
C537        C542   1.413       .  A
C538        C539   1.401       .  A
C538        H547   1.083       .  S
C539        C540   1.426       .  A
C539        S543   1.807       .  S
C540        C541   1.405       .  A
C541        C542   1.392       .  A
C541        H548   1.084       .  S
C542        S544   1.808       .  S
S543        H546   1.408       .  S
S544        H545   1.404       .  S
C549        C550   1.399       .  A
C549        C554   1.412       .  A
C550        C551   1.396       .  A
C550        H559   1.083       .  S
C551        C552   1.411       .  A
C551        S555   1.806       .  S
C552        C553   1.402       .  A
C553        C554   1.402       .  A
C553        H560   1.083       .  S
C554        S556   1.804       .  S
S555        H558   1.406       .  S
S556        H557   1.407       .  S
C561        C562   1.404       .  A
C561        C566   1.412       .  A
C562        C563   1.391       .  A
C562        H571   1.084       .  S
C563        C564   1.411       .  A
C563        S567   1.810       .  S
C564        C565   1.403       .  A
C565        C566   1.399       .  A
C565        H572   1.084       .  S
C566        S568   1.799       .  S
S567        H570   1.403       .  S
S568        H569   1.407   1_565  S
C573        C574   1.395       .  A
C573        C578   1.416       .  A
C574        C575   1.392       .  A
C574        H583   1.084   1_565  S
C575        C576   1.416       .  A
C575        S579   1.805   1_565  S
C576        C577   1.398       .  A
C577        C578   1.398       .  A
C577        H584   1.083       .  S
C578        S580   1.797       .  S
S579        H582   1.408   1_545  S
S580        H581   1.407       .  S
C585        C586   1.402   1_655  A
C585        C590   1.421       .  A
C586        C587   1.400   1_545  A
C586        H595   1.084       .  S
C587        C588   1.415   1_455  A
C587        S591   1.805       .  S
C588        C589   1.396       .  A
C589        C590   1.396   1_565  A
C589        H596   1.084       .  S
C590        S592   1.803       .  S
S591        H594   1.408   1_565  S
S592        H593   1.407   1_545  S
C597        C598   1.403   1_665  A
C597        C602   1.413       .  A
C598        C599   1.398       .  A
C598        H607   1.081       .  S
C599        C600   1.410   1_556  A
C599        S603   1.803       .  S
C600        C601   1.407   1_545  A
C601        C602   1.402   1_454  A
C601        H608   1.081       .  S
C602        S604   1.804       .  S
S603        H606   1.407   1_556  S
S604        H605   1.406       .  S
C609        C610   1.405       .  A
C609        C614   1.409       .  A
C610        C611   1.402       .  A
C610        H619   1.083       .  S
C611        C612   1.414       .  A
C611        S615   1.801       .  S
C612        C613   1.408       .  A
C613        C614   1.400       .  A
C613        H620   1.084   1_655  S
C614        S616   1.800       .  S
S615        H618   1.406       .  S
S616        H617   1.408   1_655  S
C621        C622   1.401       .  A
C621        C626   1.406       .  A
C622        C623   1.399       .  A
C622        H631   1.082       .  S
C623        C624   1.423       .  A
C623        S627   1.810       .  S
C624        C625   1.412       .  A
C625        C626   1.402       .  A
C625        H632   1.080       .  S
C626        S628   1.803       .  S
S627        H630   1.407       .  S
S628        H629   1.408   1_556  S
C633        C634   1.408       .  A
C633        C638   1.417       .  A
C634        C635   1.399       .  A
C634        H643   1.083       .  S
C635        C636   1.407       .  A
C635        S639   1.809       .  S
C636        C637   1.402       .  A
C637        C638   1.408       .  A
C637        H644   1.083       .  S
C638        S640   1.804       .  S
S639        H642   1.407       .  S
S640        H641   1.406       .  S
C645        C646   1.405       .  A
C645        C650   1.423       .  A
C646        C647   1.402       .  A
C646        H655   1.082       .  S
C647        C648   1.417       .  A
C647        S651   1.805       .  S
C648        C649   1.403       .  A
C649        C650   1.407       .  A
C649        H656   1.084       .  S
C650        S652   1.799       .  S
S651        H654   1.407       .  S
S652        H653   1.407       .  S
C657        C658   1.402       .  A
C657        C662   1.408       .  A
C658        C659   1.395       .  A
C658        H667   1.084       .  S
C659        C660   1.410       .  A
C659        S663   1.803       .  S
C660        C661   1.403       .  A
C661        C662   1.395       .  A
C661        H668   1.084       .  S
C662        S664   1.801       .  S
S663        H666   1.404       .  S
S664        H665   1.403       .  S
C669        C670   1.402       .  A
C669        C674   1.419       .  A
C670        C671   1.400       .  A
C670        H679   1.084       .  S
C671        C672   1.412       .  A
C671        S675   1.803       .  S
C672        C673   1.396       .  A
C673        C674   1.395       .  A
C673        H680   1.083   1_545  S
C674        S676   1.808   1_545  S
S675        H678   1.406       .  S
S676        H677   1.402       .  S
C681        C682   1.409       .  A
C681        C686   1.411       .  A
C682        C683   1.400       .  A
C682        H691   1.082       .  S
C683        C684   1.404       .  A
C683        S687   1.804       .  S
C684        C685   1.402       .  A
C685        C686   1.394       .  A
C685        H692   1.084       .  S
C686        S688   1.801       .  S
S687        H690   1.407       .  S
S688        H689   1.408       .  S
C693        C694   1.402       .  A
C693        C698   1.412       .  A
C694        C695   1.395       .  A
C694        H703   1.084       .  S
C695        C696   1.409       .  A
C695        S699   1.805   1_545  S
C696        C697   1.402       .  A
C697        C698   1.396       .  A
C697        H704   1.085       .  S
C698        S700   1.804       .  S
S699        H702   1.407       .  S
S700        H701   1.405       .  S
C705        C706   1.411       .  A
C705        C710   1.418       .  A
C706        C707   1.402       .  A
C706        H715   1.083       .  S
C707        C708   1.411       .  A
C707        S711   1.802       .  S
C708        C709   1.405       .  A
C709        C710   1.405       .  A
C709        H716   1.083       .  S
C710        S712   1.805       .  S
S711        H714   1.407       .  S
S712        H713   1.406       .  S
C717        C718   1.402       .  A
C717        C722   1.409       .  A
C718        C719   1.402       .  A
C718        H727   1.082       .  S
C719        C720   1.425       .  A
C719        S723   1.811       .  S
C720        C721   1.414       .  A
C721        C722   1.405       .  A
C721        H728   1.083       .  S
C722        S724   1.802       .  S
S723        H726   1.407       .  S
S724        H725   1.406       .  S
C729        C730   1.413       .  A
C729        C734   1.417       .  A
C730        C731   1.403       .  A
C730        H739   1.083       .  S
C731        C732   1.412       .  A
C731        S735   1.804       .  S
C732        C733   1.402       .  A
C733        C734   1.399       .  A
C733        H740   1.084       .  S
C734        S736   1.792       .  S
S735        H738   1.407       .  S
S736        H737   1.406       .  S
C741        C742   1.404       .  A
C741        C746   1.410       .  A
C742        C743   1.407       .  A
C742        H751   1.080       .  S
C743        C744   1.425       .  A
C743        S747   1.809       .  S
C744        C745   1.414       .  A
C745        C746   1.405       .  A
C745        H752   1.083       .  S
C746        S748   1.802   1_554  S
S747        H750   1.408       .  S
S748        H749   1.407       .  S
C753        C754   1.402       .  A
C753        C758   1.419       .  A
C754        C755   1.400       .  A
C754        H763   1.084       .  S
C755        C756   1.416       .  A
C755        S759   1.806       .  S
C756        C757   1.402       .  A
C757        C758   1.405       .  A
C757        H764   1.084       .  S
C758        S760   1.802       .  S
S759        H762   1.404       .  S
S760        H761   1.405       .  S
C765        C766   1.405       .  A
C765        C770   1.416       .  A
C766        C767   1.409       .  A
C766        H775   1.083       .  S
C767        C768   1.410       .  A
C767        S771   1.805       .  S
C768        C769   1.397       .  A
C769        C770   1.398       .  A
C769        H776   1.083       .  S
C770        S772   1.808       .  S
S771        H774   1.407       .  S
S772        H773   1.407       .  S
C777        C778   1.408       .  A
C777        C782   1.407       .  A
C778        C779   1.406       .  A
C778        H787   1.083       .  S
C779        C780   1.407       .  A
C779        S783   1.802       .  S
C780        C781   1.408       .  A
C781        C782   1.400       .  A
C781        H788   1.084       .  S
C782        S784   1.802       .  S
S783        H786   1.407       .  S
S784        H785   1.408       .  S
C789        C790   1.406       .  A
C789        C794   1.415       .  A
C790        C791   1.404       .  A
C790        H799   1.080       .  S
C791        C792   1.412       .  A
C791        S795   1.805       .  S
C792        C793   1.403       .  A
C793        C794   1.400       .  A
C793        H800   1.085       .  S
C794        S796   1.804       .  S
S795        H798   1.406       .  S
S796        H797   1.407       .  S
C801        C802   1.408       .  A
C801        C806   1.405       .  A
C802        C803   1.402       .  A
C802        H811   1.083       .  S
C803        C804   1.408       .  A
C803        S807   1.801   1_455  S
C804        C805   1.407       .  A
C805        C806   1.402       .  A
C805        H812   1.081       .  S
C806        S808   1.806       .  S
S807        H810   1.407       .  S
S808        H809   1.405       .  S
C813        C814   1.399       .  A
C813        C818   1.419       .  A
C814        C815   1.409       .  A
C814        H823   1.083       .  S
C815        C816   1.423       .  A
C815        S819   1.808       .  S
C816        C817   1.403       .  A
C817        C818   1.400       .  A
C817        H824   1.083   1_455  S
C818        S820   1.811       .  S
S819        H822   1.407       .  S
S820        H821   1.406   1_455  S
C825        C826   1.412       .  A
C825        C830   1.411       .  A
C826        C827   1.405       .  A
C826        H835   1.084       .  S
C827        C828   1.409       .  A
C827        S831   1.802       .  S
C828        C829   1.411       .  A
C829        C830   1.406       .  A
C829        H836   1.084       .  S
C830        S832   1.802   1_455  S
S831        H834   1.402       .  S
S832        H833   1.407       .  S
C837        C838   1.413       .  A
C837        C842   1.406       .  A
C838        C839   1.403       .  A
C838        H847   1.084       .  S
C839        C840   1.410       .  A
C839        S843   1.802   1_455  S
C840        C841   1.412       .  A
C841        C842   1.406       .  A
C841        H848   1.082       .  S
C842        S844   1.803       .  S
S843        H846   1.407       .  S
S844        H845   1.407       .  S
C849        C850   1.406       .  A
C849        C854   1.408       .  A
C850        C851   1.412       .  A
C850        H859   1.083       .  S
C851        C852   1.420       .  A
C851        S855   1.793       .  S
C852        C853   1.411       .  A
C853        C854   1.404       .  A
C853        H860   1.081       .  S
C854        S856   1.803       .  S
S855        H858   1.398       .  S
S856        H857   1.406       .  S
C861        C862   1.403       .  A
C861        C866   1.420       .  A
C862        C863   1.408       .  A
C862        H871   1.085       .  S
C863        C864   1.423       .  A
C863        S867   1.796       .  S
C864        C865   1.407       .  A
C865        C866   1.411       .  A
C865        H872   1.081       .  S
C866        S868   1.802       .  S
S867        H870   1.407       .  S
S868        H869   1.402       .  S
C873        C874   1.409       .  A
C873        C878   1.418       .  A
C874        C875   1.414       .  A
C874        H883   1.084       .  S
C875        C876   1.423       .  A
C875        S879   1.800       .  S
C876        C877   1.415       .  A
C877        C878   1.409       .  A
C877        H884   1.082       .  S
C878        S880   1.798       .  S
S879        H882   1.396       .  S
S880        H881   1.406       .  S
C885        C886   1.413       .  A
C885        C890   1.421       .  A
C886        C887   1.414       .  A
C886        H895   1.083       .  S
C887        C888   1.421       .  A
C887        S891   1.796       .  S
C888        C889   1.417       .  A
C889        C890   1.405       .  A
C889        H896   1.077       .  S
C890        S892   1.805       .  S
S891        H894   1.407       .  S
S892        H893   1.408       .  S
C897        C898   1.413       .  A
C897        C902   1.420       .  A
C898        C899   1.397       .  A
C898        H907   1.083       .  S
C899        C900   1.410       .  A
C899        S903   1.804       .  S
C900        C901   1.405       .  A
C901        C902   1.417       .  A
C901        H908   1.082       .  S
C902        S904   1.799       .  S
S903        H906   1.405       .  S
S904        H905   1.406       .  S
C909        C910   1.411       .  A
C909        C914   1.415       .  A
C910        C911   1.411       .  A
C910        H919   1.083       .  S
C911        C912   1.407       .  A
C911        S915   1.801       .  S
C912        C913   1.407       .  A
C913        C914   1.404       .  A
C913        H920   1.084       .  S
C914        S916   1.802       .  S
S915        H918   1.407       .  S
S916        H917   1.404       .  S
C921        C922   1.411       .  A
C921        C926   1.418   1_556  A
C922        C923   1.414       .  A
C922        H931   1.083       .  S
C923        C924   1.418       .  A
C923        S927   1.797       .  S
C924        C925   1.410   1_556  A
C925        C926   1.402       .  A
C925        H932   1.082       .  S
C926        S928   1.795       .  S
S927        H930   1.406       .  S
S928        H929   1.406       .  S
C933        C934   1.416   1_556  A
C933        C938   1.429       .  A
C934        C935   1.401       .  A
C934        H943   1.080       .  S
C935        C936   1.412   1_554  A
C935        S939   1.807       .  S
C936        C937   1.404       .  A
C937        C938   1.414       .  A
C937        H944   1.083       .  S
C938        S940   1.799       .  S
S939        H942   1.408       .  S
S940        H941   1.406       .  S
C945        C946   1.404       .  A
C945        C950   1.408       .  A
C946        C947   1.406       .  A
C946        H955   1.084       .  S
C947        C948   1.424       .  A
C947        S951   1.798       .  S
C948        C949   1.416       .  A
C949        C950   1.401       .  A
C949        H956   1.081       .  S
C950        S952   1.794       .  S
S951        H954   1.400       .  S
S952        H953   1.405       .  S
C957        C958   1.412       .  A
C957        C962   1.413       .  A
C958        C959   1.404       .  A
C958        H967   1.084       .  S
C959        C960   1.404       .  A
C959        S963   1.799       .  S
C960        C961   1.412       .  A
C961        C962   1.409       .  A
C961        H968   1.082       .  S
C962        S964   1.806       .  S
S963        H966   1.406       .  S
S964        H965   1.407       .  S
C969        C970   1.404       .  A
C969        C974   1.420       .  A
C970        C971   1.406       .  A
C970        H979   1.082       .  S
C971        C972   1.419       .  A
C971        S975   1.804       .  S
C972        C973   1.408       .  A
C973        C974   1.414       .  A
C973        H980   1.080       .  S
C974        S976   1.807       .  S
S975        H978   1.407       .  S
S976        H977   1.407       .  S
C981        C982   1.412       .  A
C981        C986   1.430       .  A
C982        C983   1.407       .  A
C982        H991   1.078       .  S
C983        C984   1.412       .  A
C983        S987   1.802       .  S
C984        C985   1.395       .  A
C985        C986   1.406       .  A
C985        H992   1.081       .  S
C986        S988   1.812       .  S
S987        H990   1.405       .  S
S988        H989   1.407       .  S
C993        C994   1.405   1_556  A
C993        C998   1.411       .  A
C994        C995   1.410       .  A
C994       H1003   1.084       .  S
C995        C996   1.424       .  A
C995        S999   1.797       .  S
C996        C997   1.421       .  A
C997        C998   1.411   1_554  A
C997       H1004   1.082   1_554  S
C998       S1000   1.801       .  S
S999       H1002   1.398       .  S
S1000      H1001   1.406       .  S
C1005      C1006   1.399       .  A
C1005      C1010   1.426       .  A
C1006      C1007   1.409       .  A
C1006      H1015   1.083       .  S
C1007      C1008   1.424       .  A
C1007      S1011   1.805   1_554  S
C1008      C1009   1.400       .  A
C1009      C1010   1.413       .  A
C1009      H1016   1.083       .  S
C1010      S1012   1.807       .  S
S1011      H1014   1.402       .  S
S1012      H1013   1.407       .  S
C1017      C1018   1.410       .  A
C1017      C1022   1.419       .  A
C1018      C1019   1.410       .  A
C1018      H1027   1.083       .  S
C1019      C1020   1.418       .  A
C1019      S1023   1.803       .  S
C1020      C1021   1.404       .  A
C1021      C1022   1.410       .  A
C1021      H1028   1.081       .  S
C1022      S1024   1.803       .  S
S1023      H1026   1.402       .  S
S1024      H1025   1.407       .  S
C1029      C1030   1.411       .  A
C1029      C1034   1.424       .  A
C1030      C1031   1.402       .  A
C1030      H1039   1.066       .  S
C1031      C1032   1.415       .  A
C1031      S1035   1.808       .  S
C1032      C1033   1.411       .  A
C1033      C1034   1.414       .  A
C1033      H1040   1.083       .  S
C1034      S1036   1.799       .  S
S1035      H1038   1.408       .  S
S1036      H1037   1.406       .  S
