geometry optimzed in LAMMPS
_audit_creation_date              2020-11-30 
_audit_creation_method            'lammps2cif' 
_symmetry_space_group_name_H-M    'P1' 
_symmetry_Int_Tables_number       1 
_symmetry_cell_setting            triclinic 
loop_ 
_symmetry_equiv_pos_as_xyz 
  x,y,z 
_cell_length_a                    34.97821308 
_cell_length_b                    34.89780084790112 
_cell_length_c                    44.76910314622328 
_cell_angle_alpha                 89.63163325041928 
_cell_angle_beta                  87.31663479571452 
_cell_angle_gamma                 89.8604986028112 
loop_ 
_atom_site_label 
_atom_site_type_symbol 
_atom_site_fract_x 
_atom_site_fract_y 
_atom_site_fract_z 
_atom_site_charge 
Zr1        Zr  0.75291111  0.12200020  0.44555326     2.17500
O2          O  0.74063576  0.17248060  0.40929898    -0.52100
O3          O  0.68920458  0.09575964  0.44008538    -0.75300
O4          O  0.76424457  0.09857897  0.39365326    -0.82100
O5          O  0.71953252  0.18294710  0.01245985    -0.83800
O6          O  0.81824193  0.06206038  0.39194605    -0.79500
O7          O  0.71878770  0.17864705  0.46393679    -0.91100
O8          O  0.70038947  0.03485858  0.45445755    -0.77100
O9          O  0.76959236  0.05602012  0.44712773    -0.86500
O10         O  0.73037156  0.09916922  0.99574740    -0.86200
O11         O  0.82149005  0.11953036  0.43934687    -0.73000
O12         O  0.78486864  0.15725232  0.48307584    -0.85100
Zr13       Zr  0.84957062  0.06408162  0.02923205     2.26400
Zr14       Zr  0.83780015  0.05295853  0.44290181     2.06300
Zr15       Zr  0.76466549  0.13555188  0.03088909     2.10000
Zr16       Zr  0.74540394  0.03339802  0.00067261     1.78800
O17         O  0.77677079  0.19733572  0.05360512    -0.93900
O18         O  0.74713116  0.97052149  0.47115661    -0.41700
O19         O  0.78043034  0.06924373  0.03614248    -0.78400
O20         O  0.81308556  0.02711020  0.99464977    -0.97100
O21         O  0.87183147  0.08785016  0.47952235    -0.90400
O22         O  0.83312818  0.13038246  0.02418350    -0.93200
C23         C  0.67843022  0.06111263  0.44443739     1.00500
C24         C  0.70729441  0.19230740  0.98672561     1.13500
C25         C  0.79007380  0.07821211  0.37946347     1.04300
O26         O  0.82681286  0.99330655  0.41667747    -0.95400
O27         O  0.87693438  0.00020927  0.45828821    -0.91100
O28         O  0.88209248  0.00402684  0.01059184    -0.84300
C29         C  0.88782293  0.98665873  0.48313023     1.10900
O30         O  0.85510204  0.21146900  0.44655152    -0.97300
Zr31       Zr  0.85286488  0.15356900  0.47754294     1.88900
O32         O  0.91222488  0.09691458  0.03507232    -0.74000
O33         O  0.89839065  0.06365590  0.41498549    -0.53200
O34         O  0.89982922  0.15810649  0.43582426    -0.97900
O35         O  0.85150212  0.21373324  0.99435410    -0.55100
O36         O  0.90968686  0.14892680  0.00451177    -0.74500
C37         C  0.92622582  0.12854489  0.02407596     0.97800
O38         O  0.86709256  0.01486532  0.06507351    -0.63300
O39         O  0.70362113  0.12537918  0.05834230    -0.58100
O40         O  0.83160819  0.08298918  0.08243656    -0.94800
O41         O  0.77985611  0.12278478  0.08339411    -0.93200
O42         O  0.74481779  0.98835710  0.04258229    -0.93600
O43         O  0.74880687  0.96723475  0.98370818    -0.92400
C44         C  0.80563816  0.10348951  0.09675861     1.16700
H45         H  0.70317590  0.10354729  0.99883118     0.32600
H46         H  0.81720084  0.99998440  0.99727255     0.43500
H47         H  0.84544051  0.14548981  0.03895045     0.37000
H48         H  0.82957711  0.12971980  0.41996571     0.33500
H49         H  0.69358340  0.04528571  0.05114045     0.25300
H50         H  0.90770526  0.03774435  0.40940091     0.31200
H51         H  0.90520946  0.13137803  0.42990507     0.37100
H52         H  0.76516283  0.99746142  0.05544441     0.31600
H53         H  0.70880473  0.10596201  0.07385527     0.30500
H54         H  0.80464633  0.19786225  0.05645803     0.32100
H55         H  0.85355731  0.20920143  0.52450536     0.31100
H56         H  0.72191279  0.96004473  0.98064518     0.35100
H57         H  0.88051977  0.02833780  0.08090218     0.27800
H58         H  0.72005716  0.16234235  0.39712455     0.32100
H59         H  0.87904155  0.22500906  0.45096327     0.34900
H60         H  0.69898428  0.14938499  0.06962451     0.27500
H61         H  0.84253933  0.00630949  0.07479674     0.40400
H62         H  0.84946229  0.99015343  0.40277946     0.30500
H63         H  0.75714111  0.97514577  0.45039441     0.38100
H64         H  0.82391865  0.22019151  0.99622706     0.29900
H65         H  0.89145690  0.07550506  0.39582478     0.30000
H66         H  0.76365424  0.17332614  0.39557131     0.30300
Zr67       Zr  0.84736549  0.06612586  0.27944813     2.17500
O68         O  0.88194501  0.06393656  0.32569699    -0.52100
O69         O  0.87543598  0.00089908  0.27169301    -0.75300
O70         O  0.82022754  0.06522005  0.33171888    -0.82100
O71         O  0.91245676  0.11341042  0.22682899    -0.83800
O72         O  0.75702731  0.08083093  0.33387859    -0.79500
O73         O  0.91176224  0.09142147  0.27469280    -0.91100
O74         O  0.84187856  0.97296417  0.23549986    -0.77100
O75         O  0.78955364  0.03214405  0.27241195    -0.86500
O76         O  0.85112710  0.04759495  0.22774775    -0.86200
O77         O  0.79771720  0.11357264  0.28739297    -0.73000
O78         O  0.85189168  0.12338450  0.24813516    -0.85100
Zr79       Zr  0.74572215  0.11215626  0.19865530     2.26400
Zr80       Zr  0.73961928  0.07886709  0.28162031     2.06300
Zr81       Zr  0.85546154  0.10308980  0.19701192     2.10000
Zr82       Zr  0.79313600  0.01408567  0.22068105     1.78800
O83         O  0.89038055  0.15479492  0.17124986    -0.93900
O84         O  0.75601648  0.96176187  0.24373877    -0.41700
O85         O  0.79787221  0.06872096  0.18865694    -0.78400
O86         O  0.74228496  0.05623597  0.23094844    -0.97100
O87         O  0.74344182  0.13379921  0.24932385    -0.90400
O88         O  0.80346004  0.14801051  0.20447388    -0.93200
C89         C  0.86930723  0.97369617  0.25302379     1.00500
C90         C  0.92792819  0.10887401  0.25247287     1.13500
C91         C  0.78870107  0.07396920  0.34638556     1.04300
O92         O  0.71604421  0.02041887  0.30604375    -0.95400
O93         O  0.67598495  0.07267428  0.26212565    -0.91100
O94         O  0.68180311  0.08518425  0.21193446    -0.84300
C95         C  0.66281354  0.07369720  0.23580623     1.10900
O96         O  0.84349174  0.19466980  0.29171146    -0.97300
Zr97       Zr  0.80087455  0.16845897  0.25541056     1.88900
O98         O  0.72235381  0.17834441  0.20197353    -0.74000
O99         O  0.69702146  0.12237506  0.30987045    -0.53200
O100        O  0.77500075  0.20354348  0.29868837    -0.97900
O101        O  0.83627371  0.21970129  0.22906917    -0.55100
O102        O  0.74445444  0.20478120  0.24397575    -0.74500
C103        C  0.72179605  0.20407369  0.22241166     0.97800
O104        O  0.69481127  0.11295319  0.16314104    -0.63300
O105        O  0.90074445  0.05890649  0.17236742    -0.58100
O106        O  0.77218796  0.10990203  0.14544252    -0.94800
O107        O  0.83683103  0.10172396  0.14414697    -0.93200
O108        O  0.82213008  0.97975930  0.17819130    -0.93600
O109        O  0.74827283  0.99262149  0.18430108    -0.92400
C110        C  0.80490198  0.10513710  0.13089502     1.16700
H111        H  0.87404785  0.03334013  0.22235665     0.32600
H112        H  0.72203791  0.03835686  0.22762975     0.43500
H113        H  0.80531833  0.16909980  0.19038359     0.37000
H114        H  0.79912590  0.12497030  0.30686169     0.33500
H115        H  0.77497729  0.94168421  0.24822440     0.25300
H116        H  0.69392306  0.14486360  0.29660119     0.31200
H117        H  0.75014652  0.19113704  0.30395258     0.37100
H118        H  0.82627480  0.99947854  0.16238690     0.31600
H119        H  0.88468503  0.04107145  0.16130817     0.30500
H120        H  0.91734169  0.14600915  0.17015992     0.32100
H121        H  0.81697837  0.23376676  0.21775311     0.31100
H122        H  0.74737547  0.01384915  0.16955391     0.35100
H123        H  0.69655646  0.13832800  0.15316015     0.27800
H124        H  0.89148545  0.09021679  0.32901956     0.32100
H125        H  0.86504241  0.20647372  0.27990057     0.34900
H126        H  0.91428342  0.07439045  0.15659548     0.27500
H127        H  0.70216920  0.09421454  0.14737867     0.40400
H128        H  0.68780697  0.02246298  0.30622626     0.30500
H129        H  0.74689268  0.97135075  0.26356875     0.38100
H130        H  0.85295948  0.20691922  0.21367603     0.29900
H131        H  0.67158216  0.10994676  0.31096084     0.30000
H132        H  0.90513430  0.04821554  0.32137391     0.30300
Zr133      Zr  0.56210703  0.36019656  0.41958431     2.17500
O134        O  0.55781255  0.40778956  0.37949604    -0.52100
O135        O  0.49586284  0.38657785  0.42418336    -0.75300
O136        O  0.57165706  0.33668558  0.36698627    -0.82100
O137        O  0.59122611  0.42760498  0.47979175    -0.83800
O138        O  0.57526056  0.27150782  0.36643908    -0.79500
O139        O  0.59348236  0.42186189  0.42920474    -0.91100
O140        O  0.46086999  0.33568979  0.43927175    -0.77100
O141        O  0.52588376  0.30212071  0.42559683    -0.86500
O142        O  0.53377345  0.36226405  0.46970494    -0.86200
O143        O  0.60770684  0.30773515  0.41482955    -0.73000
O144        O  0.61371358  0.36185519  0.45384622    -0.85100
Zr145      Zr  0.59136538  0.25498548  0.50509656     2.26400
Zr146      Zr  0.57071674  0.24976823  0.42027535     2.06300
Zr147      Zr  0.58487430  0.36414774  0.50336212     2.10000
Zr148      Zr  0.49812265  0.30434099  0.47555671     1.78800
O149        O  0.64068046  0.39359525  0.02673772    -0.93900
O150        O  0.44680100  0.26060119  0.46428166    -0.41700
O151        O  0.54721096  0.30727904  0.51057022    -0.78400
O152        O  0.54089488  0.25177971  0.46997958    -0.97100
O153        O  0.61985194  0.25200220  0.45556623    -0.90400
O154        O  0.62937223  0.31156419  0.49981105    -0.93200
C155        C  0.46373803  0.37094767  0.43244210     1.00500
C156        C  0.59786519  0.44122625  0.45319448     1.13500
C157        C  0.57592234  0.30455153  0.35276849     1.04300
O158        O  0.51519994  0.22114030  0.39865577    -0.95400
O159        O  0.56529312  0.18473441  0.44497735    -0.91100
O160        O  0.57624773  0.18876234  0.49478501    -0.84300
C161        C  0.56752731  0.16984430  0.47167908     1.10900
O162        O  0.69398206  0.35768860  0.42307403    -0.97300
Zr163      Zr  0.65710241  0.30834583  0.45017808     1.88900
O164        O  0.65523089  0.23073764  0.00618680    -0.74000
O165        O  0.61849455  0.21240683  0.39178463    -0.53200
O166        O  0.69558047  0.28576599  0.40705069    -0.97900
O167        O  0.70847655  0.32804893  0.48170934    -0.55100
O168        O  0.68418614  0.24685759  0.46369988    -0.74500
C169        C  0.68203278  0.22672103  0.48775491     0.97800
O170        O  0.57167721  0.21276764  0.04502664    -0.63300
O171        O  0.54114717  0.41211737  0.02698126    -0.58100
O172        O  0.58328245  0.28540489  0.05611151    -0.94800
O173        O  0.57567055  0.34999746  0.05527489    -0.93200
O174        O  0.46272648  0.34834739  0.50859286    -0.93600
O175        O  0.45701333  0.28658935  0.01657135    -0.92400
C176        C  0.57678725  0.31779550  0.06930965     1.16700
H177        H  0.51802174  0.38460311  0.47359485     0.32600
H178        H  0.52466117  0.22982741  0.47384249     0.43500
H179        H  0.64854858  0.31445367  0.01323264     0.37000
H180        H  0.62181600  0.30859000  0.39582544     0.33500
H181        H  0.42366890  0.27681546  0.46286496     0.25300
H182        H  0.60379469  0.19174803  0.38255740     0.31200
H183        H  0.72084421  0.27955482  0.41496707     0.37100
H184        H  0.48119564  0.35595248  0.52355931     0.31600
H185        H  0.55454326  0.42167246  0.04444374     0.30500
H186        H  0.64678921  0.37471728  0.04242173     0.32100
H187        H  0.70423990  0.35575813  0.48517477     0.31100
H188        H  0.48748445  0.25483602  0.52619834     0.35100
H189        H  0.59154125  0.21429705  0.06003353     0.27800
H190        H  0.54713847  0.43117656  0.38916333     0.32100
H191        H  0.68776506  0.38177841  0.43383715     0.34900
H192        H  0.53983504  0.43459102  0.01346893     0.27500
H193        H  0.54802261  0.22310581  0.05503825     0.40400
H194        H  0.50326348  0.24244878  0.38772816     0.30500
H195        H  0.45337504  0.25274456  0.44350620     0.38100
H196        H  0.73203223  0.32671723  0.46860286     0.29900
H197        H  0.63351711  0.19926149  0.40701977     0.30000
H198        H  0.53686424  0.39898480  0.36709358     0.30300
Zr199      Zr  0.56095236  0.36905666  0.17153271     2.17500
O200        O  0.55250381  0.42193254  0.13626147    -0.52100
O201        O  0.49328198  0.39224996  0.17793157    -0.75300
O202        O  0.56644483  0.34884387  0.11759580    -0.82100
O203        O  0.61142916  0.42537266  0.22613265    -0.83800
O204        O  0.57131160  0.28408765  0.11539687    -0.79500
O205        O  0.59552440  0.42797086  0.17740794    -0.91100
O206        O  0.46605609  0.36317007  0.21903935    -0.77100
O207        O  0.52453744  0.31231558  0.17857094    -0.86500
O208        O  0.54152304  0.36883242  0.22415920    -0.86200
O209        O  0.60775026  0.31919371  0.16109701    -0.73000
O210        O  0.61596363  0.36623091  0.20264478    -0.85100
Zr211      Zr  0.60158559  0.25631392  0.24944254     2.26400
Zr212      Zr  0.57001003  0.26260746  0.16710472     2.06300
Zr213      Zr  0.59648939  0.36572365  0.25429648     2.10000
Zr214      Zr  0.50564398  0.31107997  0.23081983     1.78800
O215        O  0.65779227  0.38357536  0.27385423    -0.93900
O216        O  0.47932899  0.33335892  0.27904279    -0.41700
O217        O  0.55947123  0.30878281  0.26118383    -0.78400
O218        O  0.54633133  0.25862949  0.21862341    -0.97100
O219        O  0.62369110  0.25957122  0.19805317    -0.90400
O220        O  0.63961400  0.31319830  0.24464347    -0.93200
C221        C  0.46576930  0.38762403  0.19795248     1.00500
C222        C  0.61104405  0.44192934  0.20011116     1.13500
C223        C  0.57060742  0.31714661  0.10275941     1.04300
O224        O  0.51125686  0.24110078  0.14540920    -0.95400
O225        O  0.56579741  0.19697193  0.18261906    -0.91100
O226        O  0.57807001  0.19422350  0.23221341    -0.84300
C227        C  0.56754018  0.17928940  0.20759634     1.10900
O228        O  0.70141388  0.30244753  0.14864134    -0.97300
Zr229      Zr  0.66094147  0.31604959  0.19313500     1.88900
O230        O  0.66987759  0.23853509  0.24502561    -0.74000
O231        O  0.61266575  0.22630773  0.13311895    -0.53200
O232        O  0.71353622  0.33384782  0.22408775    -0.97900
O233        O  0.69184731  0.37205798  0.17006237    -0.55100
O234        O  0.68998672  0.25371221  0.19782565    -0.74500
C235        C  0.69233487  0.23392965  0.22173248     0.97800
O236        O  0.60818781  0.20056034  0.28250698    -0.63300
O237        O  0.56890049  0.41587216  0.28628801    -0.58100
O238        O  0.58805004  0.27522820  0.30338604    -0.94800
O239        O  0.58524592  0.34024734  0.30616681    -0.93200
O240        O  0.47104738  0.26563148  0.26339535    -0.93600
O241        O  0.45329491  0.28269796  0.20458555    -0.92400
C242        C  0.58349061  0.30661415  0.31869881     1.16700
H243        H  0.52751876  0.39172727  0.22988962     0.32600
H244        H  0.52899617  0.23737738  0.22185348     0.43500
H245        H  0.66004971  0.31244777  0.25842836     0.37000
H246        H  0.62002144  0.32170318  0.14146888     0.33500
H247        H  0.49273930  0.35778245  0.28247394     0.25300
H248        H  0.63472858  0.21911823  0.14505891     0.31200
H249        H  0.73661204  0.32304936  0.21356538     0.37100
H250        H  0.46649820  0.24286503  0.25100964     0.31600
H251        H  0.59079731  0.42574486  0.29716582     0.30500
H252        H  0.67333014  0.39257444  0.25613124     0.32100
H253        H  0.68970970  0.39216054  0.18557285     0.31100
H254        H  0.46333008  0.25770603  0.19738004     0.35100
H255        H  0.63520111  0.19220396  0.28009952     0.27800
H256        H  0.53826163  0.44208418  0.14764934     0.32100
H257        H  0.68408612  0.30250140  0.13179537     0.34900
H258        H  0.56241876  0.43698634  0.27252704     0.27500
H259        H  0.60530271  0.20906406  0.30351069     0.40400
H260        H  0.50142108  0.22026645  0.15874337     0.30500
H261        H  0.45261761  0.34099305  0.27554768     0.38100
H262        H  0.67414860  0.38058112  0.15470256     0.29900
H263        H  0.59932075  0.20188644  0.12957579     0.30000
H264        H  0.53385349  0.41273754  0.12197820     0.30300
Zr265      Zr  0.45361695  0.98257213  0.43132585     2.17500
O266        O  0.40906469  0.97540291  0.39126655    -0.52100
O267        O  0.44573786  0.91296341  0.42274153    -0.75300
O268        O  0.44277807  0.02861075  0.39001686    -0.82100
O269        O  0.41026518  0.95204546  0.50592745    -0.83800
O270        O  0.49898420  0.05980080  0.37867812    -0.79500
O271        O  0.39485271  0.97252434  0.45952722    -0.91100
O272        O  0.50164676  0.88336641  0.43259701    -0.77100
O273        O  0.51753474  0.97285064  0.41147459    -0.86500
O274        O  0.48069047  0.94166449  0.46762184    -0.86200
O275        O  0.48260123  0.04460115  0.43556927    -0.73000
O276        O  0.44550324  0.01112702  0.48069082    -0.85100
Zr277      Zr  0.55800711  0.03417617  0.99516787     2.26400
Zr278      Zr  0.54666172  0.03536419  0.41291718     2.06300
Zr279      Zr  0.47083826  0.97440206  0.01271384     2.10000
Zr280      Zr  0.54433810  0.93302511  0.44865555     1.78800
O281        O  0.44410967  0.00366530  0.05856747    -0.93900
O282        O  0.57215519  0.90103642  0.40384957    -0.41700
O283        O  0.52987126  0.97510117  0.98917260    -0.78400
O284        O  0.57579500  0.99409318  0.44726856    -0.97100
O285        O  0.53543013  0.06486616  0.45994350    -0.90400
O286        O  0.50523249  0.03390123  0.51774047    -0.93200
C287        C  0.46626787  0.88278126  0.42652120     1.00500
C288        C  0.38630107  0.95700684  0.48491654     1.13500
C289        C  0.46256056  0.05532755  0.37636332     1.04300
O290        O  0.56827437  0.99136158  0.37365101    -0.95400
O291        O  0.61398082  0.05800992  0.42410015    -0.91100
O292        O  0.62786245  0.03520934  0.47013333    -0.84300
C293        C  0.63746380  0.05126596  0.44540985     1.10900
O294        O  0.40873584  0.07293407  0.50532480    -0.97300
Zr295      Zr  0.47373044  0.07333775  0.48323102     1.88900
O296        O  0.56705715  0.10628002  0.99042697    -0.74000
O297        O  0.57709272  0.08509648  0.38162551    -0.53200
O298        O  0.43203998  0.11702250  0.45707279    -0.97900
O299        O  0.47588953  0.10885645  0.52995425    -0.55100
O300        O  0.51641994  0.12685018  0.47402237    -0.74500
C301        C  0.55229342  0.13049275  0.47771942     0.97800
O302        O  0.57488230  0.05458434  0.04515250    -0.63300
O303        O  0.45848328  0.91574133  0.04167207    -0.58100
O304        O  0.57873080  0.98236294  0.02736596    -0.94800
O305        O  0.52567802  0.94558432  0.03650648    -0.93200
O306        O  0.57796589  0.87663776  0.94900650    -0.93600
O307        O  0.60094039  0.91996798  0.97222549    -0.92400
C308        C  0.56186692  0.95194348  0.03763840     1.16700
H309        H  0.46694618  0.91843830  0.47239423     0.32600
H310        H  0.60167572  0.98851965  0.44040666     0.43500
H311        H  0.49455567  0.04871865  0.03576373     0.37000
H312        H  0.46896498  0.06475789  0.42706637     0.33500
H313        H  0.55152300  0.89991868  0.38946798     0.25300
H314        H  0.56763919  0.08131574  0.36136602     0.31200
H315        H  0.42282352  0.13567207  0.47236430     0.37100
H316        H  0.57371862  0.86372489  0.92979418     0.31600
H317        H  0.44336242  0.89913077  0.02885658     0.30500
H318        H  0.42276693  0.01998937  0.05212649     0.32100
H319        H  0.45963958  0.13169755  0.52690609     0.31100
H320        H  0.61277423  0.94437443  0.97800361     0.35100
H321        H  0.55790919  0.07663513  0.05004654     0.27800
H322        H  0.38336933  0.98034974  0.40067946     0.32100
H323        H  0.41058265  0.05816525  0.52417049     0.34900
H324        H  0.44043217  0.92320665  0.05833581     0.27500
H325        H  0.60075446  0.06594142  0.04252924     0.40400
H326        H  0.55686414  0.00145968  0.35535665     0.30500
H327        H  0.59075588  0.91947794  0.39465875     0.38100
H328        H  0.50218965  0.11910160  0.53066831     0.29900
H329        H  0.56548452  0.10951358  0.38858023     0.30000
H330        H  0.40879039  0.94796104  0.38589220     0.30300
Zr331      Zr  0.47010853  0.96421968  0.17421517     2.17500
O332        O  0.44953590  0.96039161  0.12319717    -0.52100
O333        O  0.45423168  0.90062404  0.18352057    -0.75300
O334        O  0.51543558  0.91790416  0.15251320    -0.82100
O335        O  0.37980509  0.99437233  0.22154064    -0.83800
O336        O  0.57496851  0.92628666  0.16940654    -0.79500
O337        O  0.40008961  0.95220351  0.18555432    -0.91100
O338        O  0.46688458  0.89233469  0.23267676    -0.77100
O339        O  0.52013599  0.94606201  0.20572933    -0.86500
O340        O  0.44885635  0.97312989  0.22458181    -0.86200
O341        O  0.52524204  0.00291893  0.16061738    -0.73000
O342        O  0.45385423  0.03074455  0.17404220    -0.85100
Zr343      Zr  0.52905788  0.06089346  0.24855642     2.26400
Zr344      Zr  0.57337496  0.98704974  0.19531319     2.06300
Zr345      Zr  0.43076361  0.03898958  0.22465858     2.10000
Zr346      Zr  0.49573273  0.95144812  0.25510243     1.78800
O347        O  0.39869788  0.06845107  0.18312139    -0.93900
O348        O  0.44414331  0.93435247  0.29150763    -0.41700
O349        O  0.47638311  0.01851759  0.26015917    -0.78400
O350        O  0.54852444  0.99458881  0.24567579    -0.97100
O351        O  0.55607934  0.05219963  0.19926570    -0.90400
O352        O  0.48361995  0.07914653  0.21322243    -0.93200
C353        C  0.45510019  0.88050506  0.20705503     1.00500
C354        C  0.37524658  0.96460703  0.20575339     1.13500
C355        C  0.55053916  0.90760527  0.15469783     1.04300
O356        O  0.62301258  0.94880523  0.21773750    -0.95400
O357        O  0.62165411  0.03262403  0.21100971    -0.91100
O358        O  0.59782773  0.06628873  0.25117560    -0.84300
C359        C  0.62495046  0.05680447  0.23236843     1.10900
O360        O  0.49938095  0.06555693  0.11132803    -0.97300
Zr361      Zr  0.51022995  0.06958982  0.16458964     1.88900
O362        O  0.55301492  0.12224971  0.23314014    -0.74000
O363        O  0.61247371  0.99712337  0.14964986    -0.53200
O364        O  0.56632281  0.08130771  0.13144635    -0.97900
O365        O  0.46449735  0.11879497  0.15075278    -0.55100
O366        O  0.53969008  0.12727623  0.18388736    -0.74500
C367        C  0.55306060  0.14021159  0.20820038     0.97800
O368        O  0.53605353  0.06079339  0.30246826    -0.63300
O369        O  0.37604066  0.05659925  0.25755219    -0.58100
O370        O  0.48699400  0.11196639  0.26811534    -0.94800
O371        O  0.42792545  0.09666505  0.25350598    -0.93200
O372        O  0.51917123  0.95427417  0.30553025    -0.93600
O373        O  0.54348441  0.90143274  0.26126631    -0.92400
C374        C  0.45118922  0.11927089  0.26569508     1.16700
H375        H  0.43018346  0.95515355  0.23227206     0.32600
H376        H  0.56817333  0.98962397  0.25965967     0.43500
H377        H  0.47696982  0.10594432  0.21373944     0.37000
H378        H  0.53432969  0.99711602  0.14043838     0.33500
H379        H  0.44315311  0.95555942  0.30611082     0.25300
H380        H  0.61693855  0.02510940  0.14879509     0.31200
H381        H  0.58445409  0.09554472  0.14355535     0.37100
H382        H  0.51167632  0.92965391  0.31521610     0.31600
H383        H  0.36987540  0.03351230  0.26977747     0.30500
H384        H  0.37778089  0.05059653  0.17866163     0.32100
H385        H  0.47719812  0.13262836  0.13366148     0.31100
H386        H  0.54703130  0.88950614  0.24131451     0.35100
H387        H  0.56143060  0.04908315  0.30535382     0.27800
H388        H  0.46092557  0.98332595  0.11324510     0.32100
H389        H  0.47265427  0.05654916  0.11033598     0.34900
H390        H  0.35429300  0.05957832  0.24432649     0.27500
H391        H  0.53918195  0.08807316  0.30775727     0.40400
H392        H  0.62560758  0.95954338  0.23794829     0.30500
H393        H  0.42001025  0.93694979  0.28098844     0.38100
H394        H  0.46403078  0.13755450  0.16725478     0.29900
H395        H  0.63769402  0.98599195  0.15399330     0.30000
H396        H  0.42170157  0.96567810  0.12471137     0.30300
Zr397      Zr  0.44497083  0.65180732  0.39607978     2.17500
O398        O  0.44763738  0.60223295  0.35751692    -0.52100
O399        O  0.50908415  0.62120861  0.39875717    -0.75300
O400        O  0.43795193  0.67126235  0.34333802    -0.82100
O401        O  0.40479182  0.59547469  0.45993522    -0.83800
O402        O  0.43481918  0.73622887  0.34019782    -0.79500
O403        O  0.40924752  0.59388590  0.40911297    -0.91100
O404        O  0.53799791  0.67665149  0.40101826    -0.77100
O405        O  0.48259933  0.70921841  0.39519495    -0.86500
O406        O  0.47384606  0.65422053  0.44419899    -0.86200
O407        O  0.39997737  0.70458198  0.39106347    -0.73000
O408        O  0.39379550  0.65633405  0.43435430    -0.85100
Zr409      Zr  0.41943193  0.76730888  0.47691272     2.26400
Zr410      Zr  0.43854307  0.76114892  0.39057590     2.06300
Zr411      Zr  0.42281840  0.65750124  0.48162135     2.10000
Zr412      Zr  0.51116462  0.71174193  0.44267654     1.78800
O413        O  0.36589977  0.63707902  0.51077781    -0.93900
O414        O  0.56879850  0.74333389  0.42200990    -0.41700
O415        O  0.46206882  0.71380014  0.48173794    -0.78400
O416        O  0.46962373  0.76455955  0.43750652    -0.97100
O417        O  0.39003651  0.76500251  0.42971586    -0.90400
O418        O  0.38004475  0.71117747  0.47766128    -0.93200
C419        C  0.53944176  0.64055552  0.40279101     1.00500
C420        C  0.39965884  0.57901695  0.43455415     1.13500
C421        C  0.43417680  0.70273376  0.32849943     1.04300
O422        O  0.49415085  0.78674249  0.36248833    -0.95400
O423        O  0.44576761  0.82771261  0.40269874    -0.91100
O424        O  0.44134427  0.82935178  0.45381540    -0.84300
C425        C  0.44831052  0.84485891  0.42763826     1.10900
O426        O  0.31800581  0.65959259  0.40378802    -0.97300
Zr427      Zr  0.35110167  0.70971319  0.43023328     1.88900
O428        O  0.35355044  0.79403799  0.48023991    -0.74000
O429        O  0.39093127  0.80014627  0.36610780    -0.53200
O430        O  0.30890100  0.73181216  0.39180824    -0.97900
O431        O  0.30179768  0.68974512  0.46751363    -0.55100
O432        O  0.32264312  0.77187754  0.44041354    -0.74500
C433        C  0.32601561  0.79527977  0.46198768     0.97800
O434        O  0.42695820  0.81290884  0.51733805    -0.63300
O435        O  0.46106445  0.60900595  0.50598377    -0.58100
O436        O  0.43224249  0.74575107  0.53035173    -0.94800
O437        O  0.43390785  0.68057681  0.53281373    -0.93200
O438        O  0.54466674  0.67398826  0.47887636    -0.93600
O439        O  0.54524515  0.76182040  0.46823147    -0.92400
C440        C  0.43586993  0.71558425  0.04610903     1.16700
H441        H  0.48877185  0.63182332  0.44882609     0.32600
H442        H  0.48737099  0.78566030  0.43750149     0.43500
H443        H  0.36160003  0.71203436  0.49435499     0.37000
H444        H  0.38589775  0.70229217  0.37320155     0.33500
H445        H  0.58672469  0.72266317  0.41570827     0.25300
H446        H  0.40594065  0.81864504  0.35348961     0.31200
H447        H  0.32619097  0.74155863  0.37536917     0.37100
H448        H  0.52482386  0.65755489  0.48874382     0.31600
H449        H  0.47903543  0.62333411  0.51814840     0.30500
H450        H  0.34632861  0.63334990  0.49578509     0.32100
H451        H  0.27826250  0.68640326  0.45639208     0.31100
H452        H  0.56123270  0.74826266  0.48262584     0.35100
H453        H  0.44621718  0.83184240  0.50990256     0.27800
H454        H  0.45507309  0.57821421  0.36763384     0.32100
H455        H  0.29036721  0.66250586  0.40906700     0.34900
H456        H  0.44303493  0.59684421  0.52087594     0.27500
H457        H  0.40254269  0.82732595  0.51888186     0.40400
H458        H  0.48363471  0.79881784  0.34454485     0.30500
H459        H  0.56098905  0.75508384  0.40303414     0.38100
H460        H  0.29641316  0.71288587  0.47969888     0.29900
H461        H  0.37904218  0.78304664  0.35164658     0.30000
H462        H  0.47037036  0.60829211  0.34431908     0.30300
Zr463      Zr  0.45224653  0.65612364  0.14701016     2.17500
O464        O  0.47018323  0.60778787  0.10980963    -0.52100
O465        O  0.51836890  0.63074042  0.15603917    -0.75300
O466        O  0.44757166  0.68344314  0.09411002    -0.82100
O467        O  0.39852795  0.59286819  0.20392098    -0.83800
O468        O  0.43964786  0.74831360  0.09465351    -0.79500
O469        O  0.41342371  0.59674440  0.15382715    -0.91100
O470        O  0.54935628  0.68316373  0.16942684    -0.77100
O471        O  0.48586853  0.71459315  0.15459083    -0.86500
O472        O  0.47282228  0.65317418  0.19807455    -0.86200
O473        O  0.40518083  0.70697153  0.14245448    -0.73000
O474        O  0.39680788  0.65450372  0.18139512    -0.85100
Zr475      Zr  0.40725294  0.75785491  0.23299535     2.26400
Zr476      Zr  0.43989854  0.76518364  0.14909970     2.06300
Zr477      Zr  0.41735903  0.64950065  0.23113555     2.10000
Zr478      Zr  0.50648842  0.71176342  0.20508265     1.78800
O479        O  0.36098259  0.62781526  0.26036437    -0.93900
O480        O  0.55803108  0.75798279  0.19456932    -0.41700
O481        O  0.45200817  0.70690444  0.23852764    -0.78400
O482        O  0.46298697  0.76239621  0.19895587    -0.97100
O483        O  0.38553391  0.76153434  0.18331239    -0.90400
O484        O  0.37184951  0.70052782  0.22701974    -0.93200
C485        C  0.54834000  0.64736032  0.16578042     1.00500
C486        C  0.39760380  0.57993193  0.17706338     1.13500
C487        C  0.44209808  0.71609869  0.08028691     1.04300
O488        O  0.50010714  0.78778229  0.12713931    -0.95400
O489        O  0.44375858  0.82772266  0.17554919    -0.91100
O490        O  0.43217547  0.82170028  0.22604622    -0.84300
C491        C  0.44234035  0.84103279  0.20273472     1.10900
O492        O  0.32153896  0.64746039  0.15644026    -0.97300
Zr493      Zr  0.35063686  0.70437463  0.17711318     1.88900
O494        O  0.34037379  0.78065528  0.23293619    -0.74000
O495        O  0.39574570  0.80677976  0.12356099    -0.53200
O496        O  0.31950744  0.72026605  0.13102371    -0.97900
O497        O  0.29521244  0.68796668  0.20995076    -0.55100
O498        O  0.31777547  0.76433649  0.18821667    -0.74500
C499        C  0.31636059  0.78430338  0.21213849     0.97800
O500        O  0.39820535  0.79675743  0.27803107    -0.63300
O501        O  0.45285081  0.59582110  0.25134917    -0.58100
O502        O  0.41995660  0.73299178  0.28295394    -0.94800
O503        O  0.42755105  0.66833332  0.28287718    -0.93200
O504        O  0.53714390  0.66690579  0.23833179    -0.93600
O505        O  0.53201610  0.74843102  0.24584906    -0.92400
C506        C  0.42679273  0.70097286  0.29616532     1.16700
H507        H  0.48793173  0.63095075  0.20280756     0.32600
H508        H  0.48004567  0.78302521  0.20304208     0.43500
H509        H  0.35119328  0.69886138  0.24204857     0.37000
H510        H  0.39353416  0.70630951  0.12341560     0.33500
H511        H  0.56718203  0.75350445  0.17362281     0.25300
H512        H  0.37964842  0.81871319  0.13975030     0.31200
H513        H  0.32106584  0.74852780  0.12935991     0.37100
H514        H  0.51793008  0.66225135  0.25487987     0.31600
H515        H  0.47418907  0.60760189  0.26174833     0.30500
H516        H  0.34044418  0.62718333  0.24589083     0.32100
H517        H  0.29191620  0.65988065  0.20864880     0.31100
H518        H  0.52340163  0.73476289  0.26439911     0.35100
H519        H  0.42346646  0.80812348  0.28174001     0.27800
H520        H  0.49220223  0.61887352  0.09806049     0.32100
H521        H  0.29469810  0.65455068  0.15288739     0.34900
H522        H  0.43571611  0.58536760  0.26763363     0.27500
H523        H  0.38205320  0.81874158  0.27237571     0.40400
H524        H  0.51675458  0.79023517  0.14428945     0.30500
H525        H  0.54581164  0.78357158  0.19401529     0.38100
H526        H  0.27295541  0.69900755  0.20003150     0.29900
H527        H  0.41168958  0.82795279  0.11514045     0.30000
H528        H  0.44905892  0.60742160  0.09584543     0.30300
Zr529      Zr  0.15144642  0.94485624  0.02845644     2.17500
O530        O  0.09908752  0.95142036  0.06616389    -0.52100
O531        O  0.12490059  0.01201032  0.02754794    -0.75300
O532        O  0.17129903  0.93586902  0.08128892    -0.82100
O533        O  0.09523985  0.90382218  0.46984743    -0.83800
O534        O  0.23625649  0.93385994  0.08159519    -0.79500
O535        O  0.09155825  0.91291213  0.01861890    -0.91100
O536        O  0.15627635  0.04288107  0.98911201    -0.77100
O537        O  0.20798838  0.98235177  0.02324029    -0.86500
O538        O  0.15445460  0.97114950  0.47901524    -0.86200
O539        O  0.20361584  0.89958046  0.03409676    -0.73000
O540        O  0.15663934  0.89332741  0.49502352    -0.85100
Zr541      Zr  0.26733353  0.91698583  0.44627273     2.26400
Zr542      Zr  0.25993973  0.93862111  0.02917872     2.06300
Zr543      Zr  0.15803557  0.91859332  0.44506838     2.10000
Zr544      Zr  0.21095997  0.00928152  0.47449864     1.78800
O545        O  0.13719566  0.85872116  0.42343486    -0.93900
O546        O  0.23314213  0.05767369  0.00469480    -0.41700
O547        O  0.21375010  0.95817982  0.43949423    -0.78400
O548        O  0.26423332  0.96911090  0.48186435    -0.97100
O549        O  0.26548520  0.89112730  0.49606722    -0.90400
O550        O  0.21207127  0.87677174  0.45021160    -0.93200
C551        C  0.13005004  0.04102139  0.00962355     1.00500
C552        C  0.07715971  0.90395048  0.49576947     1.13500
C553        C  0.20292847  0.93229767  0.09509536     1.04300
O554        O  0.27844650  0.99896056  0.05123905    -0.95400
O555        O  0.32640877  0.94423818  0.01117344    -0.91100
O556        O  0.32931202  0.93693765  0.46425301    -0.84300
C557        C  0.34579024  0.94500273  0.48866389     1.10900
O558        O  0.15802401  0.81454694  0.02787777    -0.97300
Zr559      Zr  0.21064696  0.85145881  0.50000872     1.88900
O560        O  0.29409274  0.85146827  0.44558884    -0.74000
O561        O  0.30227948  0.89768483  0.05729758    -0.53200
O562        O  0.23471453  0.81204148  0.03950253    -0.97900
O563        O  0.19202432  0.79986581  0.46716096    -0.55100
O564        O  0.27275942  0.82218451  0.48860985    -0.74500
C565        C  0.29606675  0.82502517  0.46575824     0.97800
O566        O  0.32019009  0.93266274  0.41089182    -0.63300
O567        O  0.11255836  0.95649548  0.41759650    -0.58100
O568        O  0.24725484  0.92630259  0.39256493    -0.94800
O569        O  0.18222119  0.92837841  0.39242624    -0.93200
O570        O  0.18031378  0.04187854  0.43371558    -0.93600
O571        O  0.25687648  0.04233510  0.44091326    -0.92400
C572        C  0.21550759  0.93030802  0.37853557     1.16700
H573        H  0.13164553  0.98518097  0.47447790     0.32600
H574        H  0.28574084  0.98624308  0.47936941     0.43500
H575        H  0.21338336  0.85717675  0.43505777     0.37000
H576        H  0.20142642  0.88590187  0.05283390     0.33500
H577        H  0.22627113  0.06578574  0.51830892     0.25300
H578        H  0.31383384  0.87978539  0.04233765     0.31200
H579        H  0.24024311  0.83105316  0.05500430     0.37100
H580        H  0.18676140  0.02627770  0.41577953     0.31600
H581        H  0.09105501  0.96193195  0.43212617     0.30500
H582        H  0.14429225  0.86087729  0.40182883     0.32100
H583        H  0.16372064  0.79895373  0.46903409     0.31100
H584        H  0.26999178  0.02160730  0.42939129     0.35100
H585        H  0.31327652  0.95761668  0.40194694     0.27800
H586        H  0.10691396  0.97204364  0.07967717     0.32100
H587        H  0.15903302  0.82499244  0.04833860     0.34900
H588        H  0.12526895  0.98158964  0.41431046     0.27500
H589        H  0.31911745  0.91390285  0.39445830     0.40400
H590        H  0.29047492  0.01376902  0.03437687     0.30500
H591        H  0.22095824  0.05333850  0.02483098     0.38100
H592        H  0.20065637  0.77601100  0.47689283     0.29900
H593        H  0.28524096  0.88126636  0.07013900     0.30000
H594        H  0.09920105  0.92772622  0.07846069     0.30300
Zr595      Zr  0.15697226  0.94797758  0.27995387     2.17500
O596        O  0.11444428  0.95579302  0.32427282    -0.52100
O597        O  0.13001197  0.01534510  0.27502283    -0.75300
O598        O  0.18368580  0.94191667  0.33161853    -0.82100
O599        O  0.09206462  0.89915030  0.22464761    -0.83800
O600        O  0.24871174  0.93587993  0.32869283    -0.79500
O601        O  0.09519181  0.91396567  0.27406801    -0.91100
O602        O  0.16119294  0.04354254  0.23514707    -0.77100
O603        O  0.21529167  0.98269724  0.26989139    -0.86500
O604        O  0.15396318  0.96855213  0.22863125    -0.86200
O605        O  0.20909622  0.90206850  0.28394846    -0.73000
O606        O  0.15503448  0.89286883  0.24736647    -0.85100
Zr607      Zr  0.25848333  0.90397641  0.19078921     2.26400
Zr608      Zr  0.26725096  0.93737588  0.27348951     2.06300
Zr609      Zr  0.15120359  0.91425703  0.19661504     2.10000
Zr610      Zr  0.21189093  0.00317615  0.21903819     1.78800
O611        O  0.12725923  0.85787328  0.17183522    -0.93900
O612        O  0.24352908  0.04781020  0.25152755    -0.41700
O613        O  0.20809426  0.94978148  0.18592294    -0.78400
O614        O  0.26251680  0.95976854  0.22275514    -0.97100
O615        O  0.26296242  0.88298805  0.24154137    -0.90400
O616        O  0.20166252  0.86806485  0.20098646    -0.93200
C617        C  0.13510706  0.04330971  0.25584817     1.00500
C618        C  0.07808543  0.89955315  0.25173952     1.13500
C619        C  0.21630640  0.93700239  0.34423198     1.04300
O620        O  0.29800113  0.99427709  0.29238908    -0.95400
O621        O  0.32781890  0.94493816  0.24186618    -0.91100
O622        O  0.32176819  0.92996247  0.19258072    -0.84300
C623        C  0.34038180  0.94336099  0.21397599     1.10900
O624        O  0.15096357  0.82250787  0.28092106    -0.97300
Zr625      Zr  0.20599614  0.84776148  0.25194279     1.88900
O626        O  0.28164333  0.83725427  0.19356149    -0.74000
O627        O  0.31237235  0.89396017  0.29619046    -0.53200
O628        O  0.22369010  0.81471482  0.29740365    -0.97900
O629        O  0.18388269  0.79086221  0.22655069    -0.55100
O630        O  0.26625496  0.81518175  0.24015498    -0.74500
C631        C  0.28616735  0.81383417  0.21545583     0.97800
O632        O  0.30279710  0.88773788  0.14887669    -0.63300
O633        O  0.10237202  0.95550166  0.17616551    -0.58100
O634        O  0.23378065  0.91846484  0.14073321    -0.94800
O635        O  0.16904971  0.92311313  0.14299118    -0.93200
O636        O  0.19185072  0.04240325  0.17743448    -0.93600
O637        O  0.25776845  0.03608235  0.18495423    -0.92400
C638        C  0.20161704  0.92413991  0.12827171     1.16700
H639        H  0.13099101  0.98289898  0.22505568     0.32600
H640        H  0.28195326  0.97787269  0.21649781     0.43500
H641        H  0.19970852  0.84697914  0.18726413     0.37000
H642        H  0.20874584  0.88973368  0.30325613     0.33500
H643        H  0.27129307  0.04290810  0.24828207     0.25300
H644        H  0.32775787  0.91053366  0.30886565     0.31200
H645        H  0.24913815  0.82510807  0.30172300     0.37100
H646        H  0.16964111  0.02866908  0.16976251     0.31600
H647        H  0.11661970  0.97371643  0.16277932     0.30500
H648        H  0.10499799  0.86726011  0.16103782     0.32100
H649        H  0.17915386  0.77163342  0.24265446     0.31100
H650        H  0.28162512  0.03907387  0.19574430     0.35100
H651        H  0.30584046  0.91117566  0.13640038     0.27800
H652        H  0.10785845  0.92944390  0.33104168     0.32100
H653        H  0.14757633  0.84000109  0.29818386     0.34900
H654        H  0.08846028  0.93885885  0.16253513     0.27500
H655        H  0.28900508  0.86942917  0.13646105     0.40400
H656        H  0.31104439  0.98535418  0.31032334     0.30500
H657        H  0.23939731  0.07339805  0.24253829     0.38100
H658        H  0.20668842  0.78098302  0.21511194     0.29900
H659        H  0.29662878  0.87828374  0.31055180     0.30000
H660        H  0.09033976  0.96635735  0.31684761     0.30300
Zr661      Zr  0.94235031  0.86940208  0.01751365     2.17500
O662        O  0.95579837  0.91636511  0.05597918    -0.52100
O663        O  0.01105256  0.89043097  0.01173281    -0.75300
O664        O  0.93312961  0.85281408  0.07207756    -0.82100
O665        O  0.90286350  0.93002926  0.45581303    -0.83800
O666        O  0.92943343  0.78807928  0.07556726    -0.79500
O667        O  0.91434202  0.93147713  0.00729360    -0.91100
O668        O  0.04208479  0.85531131  0.97559537    -0.77100
O669        O  0.97795299  0.81169133  0.01183637    -0.86500
O670        O  0.96563496  0.86676357  0.46676273    -0.86200
O671        O  0.89443189  0.82024236  0.02759356    -0.73000
O672        O  0.88730920  0.86546364  0.48551900    -0.85100
Zr673      Zr  0.90656566  0.75593385  0.43926507     2.26400
Zr674      Zr  0.93174847  0.76324644  0.02407633     2.06300
Zr675      Zr  0.91271109  0.86557774  0.43472363     2.10000
Zr676      Zr  0.00140571  0.80901681  0.46124188     1.78800
O677        O  0.85712844  0.89219913  0.41116763    -0.93900
O678        O  0.04932739  0.76452975  0.47907206    -0.41700
O679        O  0.94966554  0.80819087  0.42860695    -0.78400
O680        O  0.95984259  0.75733291  0.47192151    -0.97100
O681        O  0.88099054  0.75683422  0.48966903    -0.90400
O682        O  0.86877081  0.81295912  0.44298023    -0.93200
C683        C  0.04071819  0.88208533  0.99456070     1.00500
C684        C  0.90370281  0.94696289  0.48139800     1.13500
C685        C  0.92936136  0.82152358  0.08767059     1.04300
O686        O  0.99068584  0.74110049  0.04546280    -0.95400
O687        O  0.93747514  0.69759819  0.00970893    -0.91100
O688        O  0.92967669  0.69344010  0.45715531    -0.84300
C689        C  0.94030283  0.67825975  0.48185034     1.10900
O690        O  0.80820171  0.86843242  0.01957040    -0.97300
Zr691      Zr  0.84300776  0.81268639  0.49324965     1.88900
O692        O  0.84094905  0.73106812  0.43831007    -0.74000
O693        O  0.88855520  0.72244973  0.05433226    -0.53200
O694        O  0.81070368  0.79473385  0.04103690    -0.97900
O695        O  0.79212741  0.84176475  0.46529979    -0.55100
O696        O  0.80916050  0.75287994  0.47995391    -0.74500
C697        C  0.81293087  0.72931954  0.45784323     0.97800
O698        O  0.90265485  0.70871782  0.39984661    -0.63300
O699        O  0.95483112  0.90830393  0.40460511    -0.58100
O700        O  0.92053139  0.77497444  0.38596898    -0.94800
O701        O  0.91846085  0.84000719  0.38340439    -0.93200
O702        O  0.03209195  0.84886278  0.42215028    -0.93600
O703        O  0.03398259  0.76828687  0.42415615    -0.92400
C704        C  0.92241900  0.80687325  0.37098746     1.16700
H705        H  0.98106423  0.88903833  0.46196520     0.32600
H706        H  0.97758756  0.73636661  0.46901889     0.43500
H707        H  0.84926556  0.81290734  0.42842044     0.37000
H708        H  0.88149021  0.82319587  0.04691575     0.33500
H709        H  0.07156639  0.78048655  0.48383352     0.25300
H710        H  0.90173758  0.71768489  0.07309965     0.31200
H711        H  0.78305691  0.79870276  0.03823561     0.37100
H712        H  0.05802510  0.83795293  0.41848207     0.31600
H713        H  0.98042377  0.90627622  0.41297192     0.30500
H714        H  0.86802190  0.90806212  0.39445068     0.32100
H715        H  0.78548170  0.82245726  0.45029852     0.31100
H716        H  0.01417265  0.74967553  0.41879788     0.35100
H717        H  0.92956171  0.70076981  0.39623244     0.27800
H718        H  0.96413401  0.93994404  0.04513450     0.32100
H719        H  0.82427819  0.87524982  0.03636630     0.34900
H720        H  0.95834714  0.89683952  0.38451420     0.27500
H721        H  0.88993350  0.68603890  0.40921981     0.40400
H722        H  0.98338909  0.73443983  0.06648775     0.30500
H723        H  0.07076869  0.76702868  0.96465116     0.38100
H724        H  0.80468771  0.86273295  0.45355662     0.29900
H725        H  0.86666903  0.73925123  0.06021471     0.30000
H726        H  0.97940580  0.90719869  0.06516570     0.30300
Zr727      Zr  0.94480588  0.86460284  0.27220700     2.17500
O728        O  0.95604704  0.91170383  0.31098850    -0.52100
O729        O  0.01079497  0.89146741  0.26654131    -0.75300
O730        O  0.93659065  0.83871620  0.32404674    -0.82100
O731        O  0.89673024  0.92863360  0.22080386    -0.83800
O732        O  0.92801322  0.77425740  0.32313467    -0.79500
O733        O  0.90938389  0.92411831  0.27015638    -0.91100
O734        O  0.04484034  0.84342145  0.24524102    -0.77100
O735        O  0.97975258  0.80664546  0.26307602    -0.86500
O736        O  0.96761613  0.87111117  0.22063569    -0.86200
O737        O  0.89714038  0.81452315  0.27830480    -0.73000
O738        O  0.89133355  0.86706830  0.23978045    -0.85100
Zr739      Zr  0.90666695  0.76461638  0.18630562     2.26400
Zr740      Zr  0.93251366  0.75664468  0.26931459     2.06300
Zr741      Zr  0.91380486  0.87345591  0.18902249     2.10000
Zr742      Zr  0.00269315  0.81366486  0.21180548     1.78800
O743        O  0.85455451  0.89676906  0.16878992    -0.93900
O744        O  0.06269734  0.77843849  0.21547285    -0.41700
O745        O  0.95056126  0.81702680  0.17935652    -0.78400
O746        O  0.96032524  0.76139806  0.21905078    -0.97100
O747        O  0.88088337  0.76023299  0.23660018    -0.90400
O748        O  0.86936085  0.82125688  0.19458630    -0.93200
C749        C  0.04251106  0.87694010  0.25609669     1.00500
C750        C  0.89502496  0.94120028  0.24798625     1.13500
C751        C  0.92981456  0.80630106  0.33739300     1.04300
O752        O  0.98053854  0.72007755  0.29451640    -0.95400
O753        O  0.93936944  0.69590452  0.24192334    -0.91100
O754        O  0.93416877  0.70068797  0.19145305    -0.84300
C755        C  0.94157651  0.68181750  0.21516768     1.10900
O756        O  0.81365529  0.87349825  0.26701202    -0.97300
Zr757      Zr  0.84529851  0.81714156  0.24544971     1.88900
O758        O  0.84056346  0.73914955  0.19112588    -0.74000
O759        O  0.88303794  0.71684344  0.29393964    -0.53200
O760        O  0.81454213  0.79719675  0.29304550    -0.97900
O761        O  0.78797570  0.83630052  0.22008864    -0.55100
O762        O  0.81381270  0.75744375  0.23586233    -0.74500
C763        C  0.81476682  0.73644624  0.21257346     0.97800
O764        O  0.89655021  0.72832274  0.14079424    -0.63300
O765        O  0.94740365  0.92609092  0.16334445    -0.58100
O766        O  0.91847708  0.79048379  0.13511873    -0.94800
O767        O  0.92226675  0.85546927  0.13526858    -0.93200
O768        O  0.02873829  0.86121756  0.17637998    -0.93600
O769        O  0.02700441  0.77056233  0.17261180    -0.92400
C770        C  0.92304037  0.82296730  0.12141276     1.16700
H771        H  0.98304012  0.89375380  0.21712159     0.32600
H772        H  0.97818893  0.74112899  0.21447298     0.43500
H773        H  0.84918271  0.82292649  0.18064351     0.37000
H774        H  0.88381386  0.81532705  0.29756928     0.33500
H775        H  0.08305896  0.79665582  0.20875336     0.25300
H776        H  0.87798279  0.69623311  0.27955802     0.31200
H777        H  0.78707626  0.80317175  0.29112577     0.37100
H778        H  0.01451698  0.85740924  0.15802283     0.31600
H779        H  0.92841310  0.93697229  0.14990159     0.30500
H780        H  0.83653734  0.89897858  0.18643636     0.32100
H781        H  0.76667784  0.83212360  0.23511690     0.31100
H782        H  0.04120295  0.78711417  0.15789040     0.35100
H783        H  0.92004300  0.71293519  0.13681985     0.27800
H784        H  0.97695539  0.90103447  0.32271223     0.32100
H785        H  0.82258033  0.87490502  0.28764040     0.34900
H786        H  0.95020401  0.94594307  0.17878378     0.27500
H787        H  0.87644924  0.70924274  0.14613385     0.40400
H788        H  0.96605333  0.70089208  0.30683103     0.30500
H789        H  0.06622465  0.77486144  0.23711537     0.38100
H790        H  0.78424199  0.81628056  0.20493785     0.29900
H791        H  0.89579712  0.70369055  0.31042301     0.30000
H792        H  0.93314677  0.91126038  0.32487058     0.30300
Zr793      Zr  0.75184675  0.61141943  0.49033996     2.17500
O794        O  0.78717139  0.64790673  0.52630959    -0.52100
O795        O  0.81464844  0.58017364  0.48549978    -0.75300
O796        O  0.74129021  0.59204799  0.04546552    -0.82100
O797        O  0.77358018  0.68775142  0.42927461    -0.83800
O798        O  0.69143262  0.55056788  0.04669409    -0.79500
O799        O  0.77765015  0.67619951  0.47919504    -0.91100
O800        O  0.81697555  0.53617615  0.44812161    -0.77100
O801        O  0.74152462  0.54507651  0.48100751    -0.86500
O802        O  0.76846644  0.59984867  0.43828598    -0.86200
O803        O  0.68415175  0.60360881  0.50072039    -0.73000
O804        O  0.71142080  0.65127133  0.46037666    -0.85100
Zr805      Zr  0.65068633  0.56093067  0.40897731     2.26400
Zr806      Zr  0.67473861  0.53679770  0.49273875     2.06300
Zr807      Zr  0.72950378  0.63990419  0.40865535     2.10000
Zr808      Zr  0.75569886  0.53408534  0.42865517     1.78800
O809        O  0.70149074  0.70066744  0.39382885    -0.93900
O810        O  0.76588619  0.46858109  0.44576303    -0.41700
O811        O  0.71775137  0.57344887  0.39820099    -0.78400
O812        O  0.69034467  0.52258496  0.44066762    -0.97100
O813        O  0.63369046  0.57312174  0.46088398    -0.90400
O814        O  0.66251429  0.62771283  0.41729490    -0.93200
C815        C  0.83173125  0.55506182  0.46875026     1.00500
C816        C  0.78552658  0.69626263  0.45536371     1.13500
C817        C  0.71761992  0.56917308  0.05998865     1.04300
O818        O  0.70420274  0.47542774  0.50432904    -0.95400
O819        O  0.62886178  0.49101667  0.47631716    -0.91100
O820        O  0.62032979  0.49872571  0.42629527    -0.84300
C821        C  0.61584384  0.48000667  0.45147727     1.10900
O822        O  0.63509013  0.68213831  0.51071083    -0.97300
Zr823      Zr  0.64405093  0.63930614  0.46822513     1.88900
O824        O  0.58817812  0.59189901  0.40420760    -0.74000
O825        O  0.62026882  0.52975363  0.52836284    -0.53200
O826        O  0.59236152  0.62174635  0.50409114    -0.97900
O827        O  0.64320655  0.70767945  0.45713546    -0.55100
O828        O  0.59025564  0.64311819  0.43513186    -0.74500
C829        C  0.57454789  0.62349998  0.41475943     0.97800
O830        O  0.63233574  0.51433490  0.37186788    -0.63300
O831        O  0.78800707  0.64701055  0.37737669    -0.58100
O832        O  0.66552766  0.58437275  0.35577661    -0.94800
O833        O  0.71306729  0.62900454  0.35603741    -0.93200
O834        O  0.80276398  0.53859245  0.38688736    -0.93600
O835        O  0.74491134  0.48822229  0.38912833    -0.92400
C836        C  0.68897183  0.60841937  0.34203141     1.16700
H837        H  0.79493316  0.60615055  0.43348735     0.32600
H838        H  0.68732355  0.49556670  0.43710483     0.43500
H839        H  0.64892968  0.64362446  0.40357659     0.37000
H840        H  0.67701344  0.61054183  0.52106720     0.33500
H841        H  0.79089870  0.46103681  0.43627796     0.25300
H842        H  0.59328192  0.54508325  0.01269555     0.31200
H843        H  0.57834403  0.60076356  0.49465371     0.37100
H844        H  0.81809116  0.56166443  0.39085643     0.31600
H845        H  0.78852470  0.62466545  0.36384959     0.30500
H846        H  0.72363927  0.71729672  0.38833961     0.32100
H847        H  0.64540316  0.70903018  0.43506064     0.31100
H848        H  0.71869471  0.49381255  0.38287034     0.35100
H849        H  0.61484855  0.52825334  0.35880186     0.27800
H850        H  0.80051181  0.63668470  0.03995850     0.32100
H851        H  0.66124699  0.68626012  0.51762289     0.34900
H852        H  0.78315684  0.66930165  0.36428030     0.27500
H853        H  0.65573627  0.50959014  0.35911355     0.40400
H854        H  0.69432959  0.45717714  0.48971719     0.30500
H855        H  0.77084660  0.47092289  0.46726153     0.38100
H856        H  0.66818263  0.71733352  0.46339337     0.29900
H857        H  0.61427842  0.52274175  0.03759542     0.30000
H858        H  0.76312262  0.66144570  0.04498419     0.30300
Zr859      Zr  0.65809519  0.56613096  0.16128952     2.17500
O860        O  0.62158029  0.54258795  0.11993525    -0.52100
O861        O  0.62974648  0.50206713  0.17583423    -0.75300
O862        O  0.68509514  0.56252882  0.10862265    -0.82100
O863        O  0.59429050  0.63521975  0.20232424    -0.83800
O864        O  0.74974275  0.56947414  0.10836793    -0.79500
O865        O  0.59771428  0.60074403  0.15927119    -0.91100
O866        O  0.65999805  0.47778870  0.21549002    -0.77100
O867        O  0.71314920  0.53126345  0.17513026    -0.86500
O868        O  0.64864898  0.55717948  0.21437282    -0.86200
O869        O  0.71117911  0.60954604  0.15072933    -0.73000
O870        O  0.65608021  0.62828245  0.18564229    -0.85100
Zr871      Zr  0.75334534  0.62230170  0.24257558     2.26400
Zr872      Zr  0.76628159  0.57326776  0.16308073     2.06300
Zr873      Zr  0.64450211  0.61837126  0.23820572     2.10000
Zr874      Zr  0.70444760  0.52326753  0.22844912     1.78800
O875        O  0.62122186  0.67772895  0.26095451    -0.93900
O876        O  0.74332331  0.46848230  0.21199292    -0.41700
O877        O  0.69883225  0.58306103  0.25270524    -0.78400
O878        O  0.75794853  0.56150177  0.21657646    -0.97100
O879        O  0.76402780  0.63306069  0.18963677    -0.90400
O880        O  0.69920911  0.65939147  0.22890373    -0.93200
C881        C  0.63462775  0.47634989  0.19637813     1.00500
C882        C  0.58161972  0.62566660  0.17654178     1.13500
C883        C  0.71801071  0.56606152  0.09435960     1.04300
O884        O  0.79123774  0.51009192  0.14980799    -0.95400
O885        O  0.82549337  0.57037998  0.19162062    -0.91100
O886        O  0.81748463  0.59575584  0.23851098    -0.84300
C887        C  0.83701646  0.57782586  0.21818185     1.10900
O888        O  0.66778316  0.69504642  0.13934703    -0.97300
Zr889      Zr  0.71019006  0.66943125  0.17621222     1.88900
O890        O  0.77588966  0.68814377  0.23526851    -0.74000
O891        O  0.81394040  0.60479034  0.13005785    -0.53200
O892        O  0.74017291  0.69347876  0.12956006    -0.97900
O893        O  0.68377180  0.73036999  0.19383874    -0.55100
O894        O  0.77017678  0.70068390  0.18618979    -0.74500
C895        C  0.78522330  0.70671984  0.21119184     0.97800
O896        O  0.79072204  0.63507740  0.28639939    -0.63300
O897        O  0.58592508  0.58851909  0.25844804    -0.58100
O898        O  0.72369542  0.61698996  0.29443385    -0.94800
O899        O  0.65910909  0.61097003  0.29288407    -0.93200
O900        O  0.66602265  0.50111957  0.27201326    -0.93600
O901        O  0.74165975  0.50501734  0.27108777    -0.92400
C902        C  0.69026092  0.61237548  0.30774185     1.16700
H903        H  0.62522258  0.54381707  0.21980419     0.32600
H904        H  0.77686116  0.54431530  0.22408943     0.43500
H905        H  0.69725258  0.68286419  0.24019977     0.37000
H906        H  0.71189204  0.61879587  0.13043004     0.33500
H907        H  0.76798555  0.47118118  0.22175144     0.25300
H908        H  0.81810647  0.63000420  0.13935845     0.31200
H909        H  0.76305891  0.67711889  0.12591568     0.37100
H910        H  0.63957136  0.50957792  0.26848508     0.31600
H911        H  0.59465514  0.56651629  0.27042729     0.30500
H912        H  0.61431949  0.69416847  0.24392491     0.32100
H913        H  0.70302156  0.74084848  0.20708586     0.31100
H914        H  0.73683208  0.47731916  0.27435774     0.35100
H915        H  0.81726527  0.64069012  0.27908846     0.27800
H916        H  0.59461855  0.54117092  0.12762670     0.32100
H917        H  0.65898177  0.67225912  0.12854733     0.34900
H918        H  0.57538286  0.60694716  0.27341656     0.27500
H919        H  0.78130965  0.66007823  0.29414296     0.40400
H920        H  0.79855516  0.49863668  0.16900950     0.30500
H921        H  0.73096020  0.44591849  0.22183693     0.38100
H922        H  0.66153209  0.72367781  0.20731918     0.29900
H923        H  0.83798561  0.59042793  0.13276616     0.30000
H924        H  0.62928228  0.51542148  0.11737198     0.30300
Zr925      Zr  0.05934615  0.15329666  0.04233757     2.17500
O926        O  0.05041585  0.11212555  0.08640953    -0.52100
O927        O  0.99296543  0.12588080  0.03976764    -0.75300
O928        O  0.06809539  0.18115116  0.09380062    -0.82100
O929        O  0.09548065  0.08595609  0.48237832    -0.83800
O930        O  0.07288180  0.24623287  0.09201718    -0.79500
O931        O  0.09368772  0.09213795  0.03374905    -0.91100
O932        O  0.96631483  0.18134705  0.02972931    -0.77100
O933        O  0.02270924  0.21054414  0.03502539    -0.86500
O934        O  0.03585734  0.14851685  0.49185017    -0.86200
O935        O  0.10458531  0.20586846  0.04415439    -0.73000
O936        O  0.11226632  0.15203271  0.00509233    -0.85100
Zr937      Zr  0.09472295  0.25632978  0.45218970     2.26400
Zr938      Zr  0.06720184  0.26292698  0.03779222     2.06300
Zr939      Zr  0.08789126  0.14667466  0.45501467     2.10000
Zr940      Zr  0.00052402  0.20606189  0.48632990     1.78800
O941        O  0.14846737  0.12613472  0.43124391    -0.93900
O942        O  0.94659967  0.24920162  0.99152754    -0.41700
O943        O  0.05116843  0.20347606  0.44918071    -0.78400
O944        O  0.04249673  0.25849626  0.49017226    -0.97100
O945        O  0.11978844  0.25986048  0.00195645    -0.90400
O946        O  0.13217295  0.19933943  0.45542823    -0.93200
C947        C  0.96321777  0.14544206  0.03326337     1.00500
C948        C  0.10554471  0.07550879  0.00942793     1.13500
C949        C  0.07327200  0.21406895  0.10672520     1.04300
O950        O  0.01389280  0.29327590  0.06513794    -0.95400
O951        O  0.05923091  0.32559200  0.01271600    -0.91100
O952        O  0.06549685  0.31799901  0.46137748    -0.84300
C953        C  0.05860387  0.33960722  0.98586162     1.10900
O954        O  0.18452300  0.14938450  0.03380893    -0.97300
Zr955      Zr  0.15668702  0.20341031  0.00771020     1.88900
O956        O  0.16008595  0.28554633  0.45325629    -0.74000
O957        O  0.11357014  0.30797997  0.05614867    -0.53200
O958        O  0.19366788  0.22557147  0.04916792    -0.97900
O959        O  0.21371303  0.19711006  0.46789012    -0.55100
O960        O  0.18531735  0.26699888  0.49669393    -0.74500
C961        C  0.18461057  0.28929908  0.47388108     0.97800
O962        O  0.10466465  0.30179985  0.41081827    -0.63300
O963        O  0.06019085  0.09124162  0.43112784    -0.58100
O964        O  0.07791398  0.23119748  0.40229671    -0.94800
O965        O  0.07180801  0.16638171  0.40323351    -0.93200
O966        O  0.97074241  0.15541977  0.45864522    -0.93600
O967        O  0.97498812  0.24568568  0.44684422    -0.92400
C968        C  0.07076834  0.19904478  0.38932485     1.16700
H969        H  0.02077282  0.12567736  0.48956324     0.32600
H970        H  0.02390606  0.27863036  0.48825057     0.43500
H971        H  0.15085240  0.19840652  0.43888922     0.37000
H972        H  0.11799981  0.20601975  0.06236588     0.33500
H973        H  0.92465357  0.23315253  0.99849742     0.25300
H974        H  0.09890527  0.32364818  0.07107861     0.31200
H975        H  0.18357383  0.21183373  0.06725543     0.37100
H976        H  0.98803993  0.15157912  0.44077132     0.31600
H977        H  0.03219117  0.09400800  0.43472231     0.30500
H978        H  0.16433772  0.11898533  0.44816531     0.32100
H979        H  0.21158922  0.21827335  0.45323760     0.31100
H980        H  0.99677403  0.26166162  0.43930067     0.35100
H981        H  0.12297539  0.28933433  0.39637766     0.27800
H982        H  0.04698010  0.08589111  0.07871348     0.32100
H983        H  0.16519060  0.14261097  0.04983561     0.34900
H984        H  0.06469860  0.09494294  0.40931749     0.27500
H985        H  0.08021145  0.30325721  0.40056561     0.40400
H986        H  0.02586247  0.31051917  0.07947114     0.30500
H987        H  0.95303293  0.26400611  0.00930767     0.38100
H988        H  0.20944512  0.17356938  0.45629766     0.29900
H989        H  0.13092413  0.29219238  0.06803955     0.30000
H990        H  0.02483670  0.11905179  0.09520659     0.30300
Zr991      Zr  0.05513363  0.15056518  0.28662269     2.17500
O992        O  0.04024408  0.10076886  0.32391165    -0.52100
O993        O  0.98843486  0.12495395  0.27643957    -0.75300
O994        O  0.05908642  0.16920952  0.34101492    -0.82100
O995        O  0.11243446  0.09581906  0.22901953    -0.83800
O996        O  0.06167674  0.23426851  0.34384150    -0.79500
O997        O  0.09271398  0.09135882  0.27810920    -0.91100
O998        O  0.96510331  0.15837619  0.23761160    -0.77100
O999        O  0.01851081  0.20805445  0.28181648    -0.86500
O1000       O  0.03977531  0.15342555  0.23489309    -0.86200
O1001       O  0.09941190  0.20279061  0.29576364    -0.73000
O1002       O  0.11317152  0.15439894  0.25465270    -0.85100
Zr1003     Zr  0.10051123  0.26506307  0.20852850     2.26400
Zr1004     Zr  0.06120685  0.25962486  0.29199810     2.06300
Zr1005     Zr  0.09655113  0.15604193  0.20355972     2.10000
Zr1006     Zr  0.00383286  0.21138999  0.23008491     1.78800
O1007       O  0.15533241  0.13736088  0.17615870    -0.93900
O1008       O  0.94658744  0.23503692  0.25729281    -0.41700
O1009       O  0.05984574  0.21285358  0.19840972    -0.78400
O1010       O  0.04274926  0.26376542  0.24085804    -0.97100
O1011       O  0.11803423  0.26206509  0.25975359    -0.90400
O1012       O  0.13890413  0.20861364  0.21228924    -0.93200
C1013       C  0.96314779  0.13124707  0.25635803     1.00500
C1014       C  0.11063599  0.07818278  0.25460852     1.13500
C1015       C  0.06230257  0.20067080  0.35619543     1.04300
O1016       O  0.99643306  0.27643817  0.30959462    -0.95400
O1017       O  0.05706624  0.32614224  0.27447583    -0.91100
O1018       O  0.07367102  0.32654849  0.22446021    -0.84300
C1019       C  0.06097139  0.34280556  0.24873170     1.10900
O1020       O  0.18214422  0.15617889  0.29494270    -0.97300
Zr1021     Zr  0.15593480  0.20606494  0.26340365     1.88900
O1022       O  0.16413775  0.29304734  0.21585203    -0.74000
O1023       O  0.09159377  0.30588719  0.32387616    -0.53200
O1024       O  0.19427506  0.22024416  0.30598509    -0.97900
O1025       O  0.20688082  0.17884206  0.23103971    -0.55100
O1026       O  0.19075525  0.26622115  0.25621108    -0.74500
C1027       C  0.18951098  0.29209494  0.23580939     0.97800
O1028       O  0.11648955  0.31087500  0.16851121    -0.63300
O1029       O  0.06221811  0.10688987  0.17720732    -0.58100
O1030       O  0.08655269  0.24561396  0.15498497    -0.94800
O1031       O  0.08495507  0.18048361  0.15270849    -0.93200
O1032       O  0.97969349  0.19130457  0.18246618    -0.93600
O1033       O  0.97270081  0.26246517  0.20333629    -0.92400
C1034       C  0.08212693  0.21377793  0.14014658     1.16700
H1035       H  0.02728388  0.13046464  0.22858420     0.32600
H1036       H  0.02492870  0.28439522  0.23796481     0.43500
H1037       H  0.16051073  0.20959156  0.19805245     0.37000
H1038       H  0.11108026  0.20037664  0.31472427     0.33500
H1039       H  0.92516603  0.22799417  0.24471474     0.25300
H1040       H  0.07041388  0.31650258  0.33677673     0.31200
H1041       H  0.18004843  0.24079381  0.31689188     0.37100
H1042       H  0.00134652  0.19438828  0.16762130     0.31600
H1043       H  0.03844260  0.11966332  0.17117237     0.30500
H1044       H  0.15030565  0.11104492  0.16923873     0.32100
H1045       H  0.20906390  0.15178051  0.23752469     0.31100
H1046       H  0.99203124  0.26869614  0.18725095     0.35100
H1047       H  0.12341265  0.33488228  0.17860364     0.27800
H1048       H  0.03293728  0.07800487  0.31239923     0.32100
H1049       H  0.17013493  0.13206898  0.28862749     0.34900
H1050       H  0.07735885  0.10299274  0.15822085     0.27500
H1051       H  0.14093120  0.30153434  0.15910578     0.40400
H1052       H  0.98630201  0.29213931  0.29323099     0.30500
H1053       H  0.94329433  0.21823141  0.27512885     0.38100
H1054       H  0.23053106  0.19116530  0.23755388     0.29900
H1055       H  0.10718305  0.29070176  0.33757270     0.30000
H1056       H  0.01597922  0.10908295  0.33420816     0.30300
Zr1057     Zr  0.35369782  0.44903975  0.41264564     2.17500
O1058       O  0.40390559  0.45410197  0.37290101    -0.52100
O1059       O  0.37941778  0.51635387  0.41650206    -0.75300
O1060       O  0.32730501  0.44719407  0.36098403    -0.82100
O1061       O  0.41387144  0.39050335  0.46531519    -0.83800
O1062       O  0.26218099  0.44457128  0.36351316    -0.79500
O1063       O  0.41352586  0.41248394  0.41724509    -0.91100
O1064       O  0.35279107  0.54355021  0.45840140    -0.77100
O1065       O  0.29840175  0.48738120  0.42393671    -0.86500
O1066       O  0.35810157  0.46610362  0.46438875    -0.86200
O1067       O  0.29991297  0.40626550  0.40718426    -0.73000
O1068       O  0.35136337  0.39191674  0.44392602    -0.85100
Zr1069     Zr  0.24729879  0.40693900  0.49985907     2.26400
Zr1070     Zr  0.24454415  0.44548372  0.41814827     2.06300
Zr1071     Zr  0.35662587  0.40963911  0.49512875     2.10000
Zr1072     Zr  0.30230585  0.50367862  0.47555686     1.78800
O1073       O  0.37750765  0.35109199  0.51951212    -0.93900
O1074       O  0.26642946  0.55187819  0.44862846    -0.41700
O1075       O  0.30142384  0.44748249  0.50583315    -0.78400
O1076       O  0.24812412  0.46510012  0.46964717    -0.97100
O1077       O  0.24339245  0.38904054  0.44877903    -0.90400
O1078       O  0.30254586  0.36803867  0.48972743    -0.93200
C1079       C  0.37633250  0.54372475  0.43603212     1.00500
C1080       C  0.42879242  0.39381935  0.43853805     1.13500
C1081       C  0.29462520  0.44450255  0.34830049     1.04300
O1082       O  0.21852198  0.50420808  0.39743851    -0.95400
O1083       O  0.18296987  0.45504621  0.44581673    -0.91100
O1084       O  0.18502582  0.43618110  0.49468850    -0.84300
C1085       C  0.16813931  0.45123437  0.47270937     1.10900
O1086       O  0.35034068  0.31363460  0.41467384    -0.97300
Zr1087     Zr  0.29781145  0.35020584  0.43834582     1.88900
O1088       O  0.21873358  0.34221419  0.49401264    -0.74000
O1089       O  0.19734635  0.40425617  0.39640461    -0.53200
O1090       O  0.27906866  0.32463558  0.39051353    -0.97900
O1091       O  0.31018152  0.28987870  0.46408971    -0.55100
O1092       O  0.23465689  0.32221850  0.44711434    -0.74500
C1093       C  0.21404661  0.32004171  0.47143341     0.97800
O1094       O  0.20145668  0.39228097  0.04015380    -0.63300
O1095       O  0.41303378  0.44389821  0.01232340    -0.58100
O1096       O  0.27386394  0.41677439  0.04987389    -0.94800
O1097       O  0.33882440  0.42079242  0.04770677    -0.93200
O1098       O  0.33305760  0.53665768  0.51577328    -0.93600
O1099       O  0.26420473  0.53441767  0.51575776    -0.92400
C1100       C  0.30603930  0.42221211  0.06250227     1.16700
H1101       H  0.38162149  0.47946870  0.46778515     0.32600
H1102       H  0.22892263  0.48360605  0.47569492     0.43500
H1103       H  0.30302244  0.34646635  0.50329955     0.37000
H1104       H  0.29995377  0.39508910  0.38764939     0.33500
H1105       H  0.25205687  0.56698729  0.46405424     0.25300
H1106       H  0.18474268  0.42072164  0.38168125     0.31200
H1107       H  0.30054091  0.32997160  0.37589263     0.37100
H1108       H  0.35853111  0.52438676  0.51678410     0.31600
H1109       H  0.40194125  0.46631326  0.02306219     0.30500
H1110       H  0.36346552  0.34704764  0.03534200     0.32100
H1111       H  0.30298209  0.26986507  0.44981916     0.31100
H1112       H  0.23717932  0.53218598  0.51039759     0.35100
H1113       H  0.21087383  0.36951809  0.05092525     0.27800
H1114       H  0.42470114  0.46896545  0.38161457     0.32100
H1115       H  0.37036629  0.33275756  0.40920883     0.34900
H1116       H  0.43185096  0.43778123  0.50604684     0.27500
H1117       H  0.21516037  0.36958521  0.55243441     0.40400
H1118       H  0.24106953  0.51823115  0.38884978     0.30500
H1119       H  0.28594136  0.56984592  0.44008018     0.38100
H1120       H  0.29023758  0.28795227  0.48045687     0.29900
H1121       H  0.21257426  0.38563609  0.38419910     0.30000
H1122       H  0.39392369  0.47165371  0.35764398     0.30300
Zr1123     Zr  0.35405985  0.44891234  0.16219114     2.17500
O1124       O  0.40193447  0.45586979  0.12098828    -0.52100
O1125       O  0.38211136  0.51472239  0.16348969    -0.75300
O1126       O  0.33589048  0.43638361  0.10952046    -0.82100
O1127       O  0.41469127  0.41596064  0.22466562    -0.83800
O1128       O  0.27108456  0.43172197  0.10977067    -0.79500
O1129       O  0.41385505  0.41685632  0.17378676    -0.91100
O1130       O  0.33886216  0.55311844  0.18808508    -0.77100
O1131       O  0.29551005  0.48448556  0.16563184    -0.86500
O1132       O  0.35171142  0.47707558  0.21117309    -0.86200
O1133       O  0.30401358  0.40112917  0.15945927    -0.73000
O1134       O  0.35393615  0.39829297  0.19956390    -0.85100
Zr1135     Zr  0.24284571  0.41868640  0.24869648     2.26400
Zr1136     Zr  0.24568163  0.43742186  0.16246309     2.06300
Zr1137     Zr  0.35125398  0.42728111  0.24814729     2.10000
Zr1138     Zr  0.29366905  0.51271154  0.21433687     1.78800
O1139       O  0.37522954  0.37126645  0.27416367    -0.93900
O1140       O  0.25703917  0.56096240  0.18819979    -0.41700
O1141       O  0.29374964  0.46413469  0.25224151    -0.78400
O1142       O  0.24274321  0.46893349  0.21047335    -0.97100
O1143       O  0.24557164  0.38858453  0.20059662    -0.90400
O1144       O  0.30014339  0.38150264  0.24620424    -0.93200
C1145       C  0.37117873  0.54730882  0.17448074     1.00500
C1146       C  0.43013849  0.40995856  0.19837015     1.13500
C1147       C  0.30441223  0.43097782  0.09592144     1.04300
O1148       O  0.21694849  0.49104190  0.13653605    -0.95400
O1149       O  0.17952599  0.44098624  0.18302284    -0.91100
O1150       O  0.18041813  0.44103114  0.23403333    -0.84300
C1151       C  0.16350045  0.44511694  0.20930900     1.10900
O1152       O  0.34640822  0.31186577  0.16803376    -0.97300
Zr1153     Zr  0.30321536  0.35274912  0.19788226     1.88900
O1154       O  0.21430134  0.35354725  0.24878309    -0.74000
O1155       O  0.20408341  0.39248723  0.13789413    -0.53200
O1156       O  0.28166418  0.31037478  0.15910350    -0.97900
O1157       O  0.34003978  0.31422320  0.23198181    -0.55100
O1158       O  0.24830963  0.31578885  0.21602062    -0.74500
C1159       C  0.21958397  0.32209184  0.23406355     0.97800
O1160       O  0.19788280  0.42213996  0.29199029    -0.63300
O1161       O  0.39385372  0.46934948  0.27441116    -0.58100
O1162       O  0.26339288  0.43199156  0.30113405    -0.94800
O1163       O  0.32814839  0.43793159  0.30032587    -0.93200
O1164       O  0.32687825  0.55010530  0.25086018    -0.93600
O1165       O  0.24724895  0.54332804  0.24899993    -0.92400
C1166       C  0.29514309  0.43813380  0.31445716     1.16700
H1167       H  0.37378393  0.49269288  0.21465059     0.32600
H1168       H  0.22127458  0.48621864  0.21214482     0.43500
H1169       H  0.30019949  0.36305979  0.26239426     0.37000
H1170       H  0.30660829  0.38651685  0.14128506     0.33500
H1171       H  0.22980670  0.55495409  0.19310973     0.25300
H1172       H  0.21525682  0.38857178  0.11743293     0.31200
H1173       H  0.26559695  0.32670631  0.14656766     0.37100
H1174       H  0.35279214  0.53876745  0.25146005     0.31600
H1175       H  0.40503331  0.45285702  0.28984393     0.30500
H1176       H  0.38330641  0.38104424  0.29359107     0.32100
H1177       H  0.36692659  0.31610573  0.22415621     0.31100
H1178       H  0.25619695  0.53771710  0.26922751     0.35100
H1179       H  0.18743717  0.44854890  0.29186076     0.27800
H1180       H  0.42628322  0.46190362  0.13034009     0.32100
H1181       H  0.36797235  0.32880653  0.16163868     0.34900
H1182       H  0.41551395  0.47495473  0.26003865     0.27500
H1183       H  0.17609880  0.40559598  0.28712936     0.40400
H1184       H  0.22440879  0.51402581  0.14766725     0.30500
H1185       H  0.26166537  0.58526465  0.19873675     0.38100
H1186       H  0.33256240  0.28740167  0.22821742     0.29900
H1187       H  0.20777113  0.36767500  0.14820965     0.30000
H1188       H  0.39523241  0.48001031  0.11068396     0.30300
Zr1189     Zr  0.03928430  0.46253844  0.51373442     2.17500
O1190       O  0.07277503  0.47260185  0.06238429    -0.52100
O1191       O  0.05028180  0.40043470  0.00570926    -0.75300
O1192       O  0.00061608  0.42642443  0.04888317    -0.82100
O1193       O  0.12165301  0.49412195  0.45976801    -0.83800
O1194       O  0.93879263  0.43892039  0.03767598    -0.79500
O1195       O  0.10824116  0.45572757  0.50034426    -0.91100
O1196       O  0.02753406  0.38688505  0.45996814    -0.77100
O1197       O  0.98300111  0.44251397  0.49040541    -0.86500
O1198       O  0.05133587  0.46614920  0.46089399    -0.86200
O1199       O  0.99190020  0.51086221  0.03294623    -0.73000
O1200       O  0.05595875  0.52791120  0.50317203    -0.85100
Zr1201     Zr  0.96394522  0.55525708  0.44417668     2.26400
Zr1202     Zr  0.93595161  0.49430797  0.00694010     2.06300
Zr1203     Zr  0.06642940  0.53127953  0.44960470     2.10000
Zr1204     Zr  0.99650080  0.44460339  0.43842743     1.78800
O1205       O  0.12551641  0.56666371  0.45502443    -0.93900
O1206       O  0.94456523  0.39864653  0.43472982    -0.41700
O1207       O  0.01126523  0.51068424  0.42498642    -0.78400
O1208       O  0.94666686  0.48948051  0.45297806    -0.97100
O1209       O  0.94960252  0.55111044  0.49646387    -0.90400
O1210       O  0.01911822  0.57407946  0.46938789    -0.93200
C1211       C  0.04771826  0.37703821  0.48238169     1.00500
C1212       C  0.13043483  0.46820330  0.47852211     1.13500
C1213       C  0.96426730  0.42026272  0.05114233     1.04300
O1214       O  0.88375016  0.45591822  0.98908608    -0.95400
O1215       O  0.87805899  0.52113440  0.49254667    -0.91100
O1216       O  0.89571211  0.56071745  0.45372658    -0.84300
C1217       C  0.87117675  0.54619354  0.47265809     1.10900
O1218       O  0.04510259  0.58013057  0.06659199    -0.97300
Zr1219     Zr  0.00495508  0.56941156  0.52104831     1.88900
O1220       O  0.94772415  0.61921162  0.45830125    -0.74000
O1221       O  0.90194121  0.50559423  0.05477038    -0.53200
O1222       O  0.96865742  0.58948463  0.06602537    -0.97900
O1223       O  0.05604544  0.61592328  0.52646090    -0.55100
O1224       O  0.97276084  0.62722767  0.50393729    -0.74500
C1225       C  0.95420078  0.63895547  0.48139762     0.97800
O1226       O  0.93368919  0.55180057  0.39640691    -0.63300
O1227       O  0.08490459  0.51304478  0.39850905    -0.58100
O1228       O  0.00037675  0.60290893  0.41475086    -0.94800
O1229       O  0.06314469  0.59092461  0.42158063    -0.93200
O1230       O  0.04149389  0.42110688  0.39944858    -0.93600
O1231       O  0.97176127  0.44173181  0.38860749    -0.92400
C1232       C  0.03598113  0.61209030  0.41226750     1.16700
H1233       H  0.07098077  0.44866681  0.45363557     0.32600
H1234       H  0.92373170  0.48382388  0.44265044     0.43500
H1235       H  0.02594184  0.60062786  0.46671303     0.37000
H1236       H  0.98706872  0.50780853  0.05428343     0.33500
H1237       H  0.94442000  0.38376433  0.45363187     0.25300
H1238       H  0.90328757  0.53364853  0.05769433     0.31200
H1239       H  0.94445485  0.59958169  0.05843745     0.37100
H1240       H  0.06104262  0.40621836  0.40986090     0.31600
H1241       H  0.07705094  0.48596600  0.39696404     0.30500
H1242       H  0.12554927  0.57286938  0.47656906     0.32100
H1243       H  0.04562228  0.64059530  0.51940488     0.31100
H1244       H  0.95177882  0.46187139  0.38853091     0.35100
H1245       H  0.95326992  0.54010049  0.38260268     0.27800
H1246       H  0.09327873  0.49165693  0.05814794     0.32100
H1247       H  0.07149799  0.57235143  0.06032632     0.34900
H1248       H  0.11322074  0.51199038  0.39798924     0.27500
H1249       H  0.93169633  0.57870613  0.38957147     0.40400
H1250       H  0.89532619  0.43048116  0.98491712     0.30500
H1251       H  0.92075047  0.41400678  0.43616402     0.38100
H1252       H  0.07588517  0.60878757  0.51099852     0.29900
H1253       H  0.87471216  0.50051533  0.05114816     0.30000
H1254       H  0.08649234  0.44797825  0.06467313     0.30300
Zr1255     Zr  0.96458251  0.56427118  0.25654203     2.17500
O1256       O  0.93395499  0.57639991  0.30556434    -0.52100
O1257       O  0.95111573  0.62507405  0.23847341    -0.75300
O1258       O  0.00906648  0.60866251  0.28024795    -0.82100
O1259       O  0.87825778  0.52669015  0.21429381    -0.83800
O1260       O  0.07011077  0.59356582  0.26410385    -0.79500
O1261       O  0.89592003  0.57524283  0.24450877    -0.91100
O1262       O  0.97030323  0.62657194  0.18924960    -0.77100
O1263       O  0.01911638  0.57714004  0.22390041    -0.86500
O1264       O  0.94917994  0.54752401  0.20711285    -0.86200
O1265       O  0.01671359  0.52577507  0.27363789    -0.73000
O1266       O  0.94534622  0.49860673  0.26151512    -0.85100
Zr1267     Zr  0.03150135  0.45427487  0.19393323     2.26400
Zr1268     Zr  0.06925933  0.53485651  0.23750507     2.06300
Zr1269     Zr  0.92995762  0.48209163  0.21155128     2.10000
Zr1270     Zr  0.00090263  0.56319779  0.17521523     1.78800
O1271       O  0.88332462  0.45450627  0.24755194    -0.93900
O1272       O  0.05652803  0.60347796  0.16378068    -0.41700
O1273       O  0.98203637  0.49577693  0.17636217    -0.78400
O1274       O  0.05133890  0.52011596  0.18833807    -0.97100
O1275       O  0.05074927  0.47017611  0.24254921    -0.90400
O1276       O  0.97972895  0.44308826  0.22904241    -0.93200
C1277       C  0.95491747  0.64185005  0.21337945     1.00500
C1278       C  0.87240217  0.55901576  0.22684249     1.13500
C1279       C  0.04571280  0.61390993  0.27896749     1.04300
O1280       O  0.11501722  0.56527599  0.20213894    -0.95400
O1281       O  0.11625018  0.48364858  0.23242812    -0.91100
O1282       O  0.10075869  0.44946078  0.19193294    -0.84300
C1283       C  0.12431468  0.45977861  0.21139585     1.10900
O1284       O  0.97507537  0.47756057  0.32722848    -0.97300
Zr1285     Zr  0.99816903  0.45998957  0.27702715     1.88900
O1286       O  0.04976171  0.39634599  0.21904131    -0.74000
O1287       O  0.11826764  0.54287855  0.27383471    -0.53200
O1288       O  0.04213310  0.44890350  0.31676582    -0.97900
O1289       O  0.94732904  0.41452021  0.29088167    -0.55100
O1290       O  0.03067811  0.39879896  0.26835156    -0.74500
C1291       C  0.04672218  0.38208183  0.24549709     0.97800
O1292       O  0.05168773  0.43973329  0.14241732    -0.63300
O1293       O  0.88820698  0.47173692  0.17034664    -0.58100
O1294       O  0.99084865  0.40309945  0.17702875    -0.94800
O1295       O  0.92971821  0.41825878  0.19097515    -0.93200
O1296       O  0.95876608  0.58671468  0.13731908    -0.93600
O1297       O  0.01633204  0.54667395  0.12330879    -0.92400
C1298       C  0.95514208  0.39478324  0.18056019     1.16700
H1299       H  0.93092495  0.56390513  0.19786511     0.32600
H1300       H  0.07271119  0.52185497  0.17391549     0.43500
H1301       H  0.97302800  0.41643811  0.23094606     0.37000
H1302       H  0.02389761  0.53427022  0.29307761     0.33500
H1303       H  0.04652158  0.62484708  0.15174399     0.25300
H1304       H  0.11864809  0.51831572  0.28501339     0.31200
H1305       H  0.06729971  0.45754348  0.30822587     0.37100
H1306       H  0.97082556  0.61078275  0.12979098     0.31600
H1307       H  0.86328748  0.46408967  0.17993891     0.30500
H1308       H  0.85997208  0.45103125  0.23620574     0.32100
H1309       H  0.95448053  0.40392284  0.31042148     0.31100
H1310       H  0.04168305  0.53402741  0.12353628     0.35100
H1311       H  0.07338123  0.45723543  0.13760285     0.27800
H1312       H  0.93994085  0.60349734  0.30975328     0.32100
H1313       H  0.95008112  0.49014602  0.32449077     0.34900
H1314       H  0.88356961  0.49747805  0.16179586     0.27500
H1315       H  0.06351631  0.41397628  0.14339241     0.40400
H1316       H  0.13992452  0.55311333  0.20600115     0.30500
H1317       H  0.06230785  0.61543890  0.18304212     0.38100
H1318       H  0.95084583  0.39274850  0.27696027     0.29900
H1319       H  0.14291394  0.54349688  0.26203391     0.30000
H1320       H  0.94922339  0.56153782  0.31968443     0.30300
C1321       C  0.08020264  0.70877489  0.30939387    -0.06200
C1322       C  0.09603479  0.69538457  0.33607249     0.07900
C1323       C  0.10758962  0.65667320  0.33632901    -0.03600
C1324       C  0.08667659  0.63005402  0.32053384    -0.01900
C1325       C  0.06311347  0.64296380  0.29777797    -0.05500
C1326       C  0.06376371  0.68220550  0.28992229     0.01500
C1327       C  0.07828771  0.70973749  0.36516802     0.08400
C1328       C  0.13906176  0.64419255  0.35390073     0.34300
C1329       C  0.04783071  0.69460395  0.26223255     0.37700
C1330       C  0.03859120  0.70459297  0.36676046    -0.05900
C1331       C  0.02364412  0.67091205  0.38002020     0.01300
C1332       C  0.04672904  0.65057144  0.39996114    -0.05500
C1333       C  0.08012129  0.66956211  0.40942885    -0.01700
C1334       C  0.09596078  0.69978657  0.39164973    -0.04200
C1335       C  0.01497009  0.73455990  0.35568162     0.35000
C1336       C  0.09639926  0.66014736  0.43770784     0.38600
C1337       C  0.98678033  0.65702731  0.37165783     0.37800
C1338       C  0.13135782  0.71820052  0.39862484     0.34700
C1339       C  0.07795398  0.74959913  0.30394826     0.35400
C1340       C  0.08787571  0.58986538  0.32887302     0.38600
N1341       N  0.95757583  0.64555452  0.36455369    -0.39500
N1342       N  0.99804069  0.76069415  0.34753587    -0.41000
N1343       N  0.10887761  0.65356992  0.46067441    -0.38800
N1344       N  0.15955588  0.73309359  0.40444096    -0.41200
N1345       N  0.16465347  0.63414026  0.36745279    -0.41000
N1346       N  0.08806481  0.55793004  0.33596912    -0.38600
N1347       N  0.03478564  0.70367216  0.23999373    -0.39600
N1348       N  0.07619679  0.78231500  0.29983820    -0.41300
C1349       C  0.88753162  0.31806745  0.15751273    -0.06200
C1350       C  0.90979961  0.30910198  0.13167861     0.07900
C1351       C  0.94845793  0.30306625  0.13759271    -0.03600
C1352       C  0.96616577  0.33083816  0.15484863    -0.01900
C1353       C  0.94207005  0.35595416  0.17204126    -0.05500
C1354       C  0.90332437  0.34401383  0.17773820     0.01500
C1355       C  0.90620682  0.33605782  0.10548186     0.08400
C1356       C  0.96908498  0.27081678  0.12479877     0.34300
C1357       C  0.87947697  0.35946950  0.20209658     0.37700
C1358       C  0.90125744  0.37587425  0.11081692    -0.05900
C1359       C  0.92582765  0.40214717  0.09606090     0.01300
C1360       C  0.94841170  0.39029437  0.07099899    -0.05500
C1361       C  0.94430292  0.35266342  0.06022800    -0.01700
C1362       C  0.92381145  0.32528904  0.07787839    -0.04200
C1363       C  0.86836332  0.39017915  0.12822388     0.35000
C1364       C  0.95915127  0.34307231  0.03051395     0.38600
C1365       C  0.92658605  0.44187453  0.10555092     0.37800
C1366       C  0.91983010  0.28616078  0.06808325     0.34700
C1367       C  0.84740693  0.30821283  0.15899748     0.35400
C1368       C  0.00746096  0.33306844  0.15468531     0.38600
N1369       N  0.92813477  0.47367590  0.11254472    -0.39500
N1370       N  0.84166960  0.40194879  0.14142961    -0.41000
N1371       N  0.97042531  0.33617007  0.00646092    -0.38800
N1372       N  0.91573939  0.25470571  0.06090849    -0.41200
N1373       N  0.98523944  0.24436549  0.11513891    -0.41000
N1374       N  0.04046528  0.33490489  0.15467801    -0.38600
N1375       N  0.86001978  0.37152121  0.22145130    -0.39600
N1376       N  0.81524980  0.30035972  0.15999921    -0.41300
C1377       C  0.42351317  0.15687261  0.36901440    -0.06200
C1378       C  0.39906275  0.15406150  0.34510110     0.07900
C1379       C  0.38802548  0.11635261  0.33684746    -0.03600
C1380       C  0.40945529  0.08398873  0.34593241    -0.01900
C1381       C  0.44080046  0.08873984  0.36435497    -0.05500
C1382       C  0.44671603  0.12565776  0.37662943     0.01500
C1383       C  0.39614673  0.18913729  0.32456630     0.08400
C1384       C  0.35332114  0.11031780  0.32105771     0.34300
C1385       C  0.47692863  0.13243665  0.39695046     0.37700
C1386       C  0.37602543  0.18449399  0.29843361    -0.05900
C1387       C  0.39476123  0.16366284  0.27509770     0.01300
C1388       C  0.43439432  0.15526531  0.27785677    -0.05500
C1389       C  0.45486719  0.18087721  0.29561981    -0.01700
C1390       C  0.43314383  0.20298719  0.31654272    -0.04200
C1391       C  0.34338158  0.20845649  0.29299714     0.35000
C1392       C  0.49536742  0.18711452  0.29074882     0.38600
C1393       C  0.37458751  0.15341015  0.24880475     0.37800
C1394       C  0.44708580  0.23835078  0.32855669     0.34700
C1395       C  0.42496723  0.19262119  0.38518662     0.35400
C1396       C  0.40008763  0.04613011  0.33542848     0.38600
N1397       N  0.35842283  0.14521262  0.22780492    -0.39500
N1398       N  0.31803911  0.22845939  0.28787846    -0.41000
N1399       N  0.52764558  0.19321894  0.28674862    -0.38800
N1400       N  0.45813887  0.26696458  0.33778990    -0.41200
N1401       N  0.32542717  0.10540617  0.30870072    -0.41000
N1402       N  0.39261955  0.01591220  0.32698684    -0.38600
N1403       N  0.50120314  0.13844379  0.41292126    -0.39600
N1404       N  0.42516422  0.22134551  0.39790539    -0.41300
C1405       C  0.62004005  0.83516269  0.12091591    -0.06200
C1406       C  0.60464742  0.83401905  0.09252284     0.07900
C1407       C  0.56419061  0.83493316  0.09274626    -0.03600
C1408       C  0.54456273  0.85885678  0.11339869    -0.01900
C1409       C  0.56442606  0.87308567  0.13785158    -0.05500
C1410       C  0.59978811  0.85520929  0.14401906    -0.01300
C1411       C  0.62536605  0.85570771  0.06731044     0.08400
C1412       C  0.54352127  0.81376693  0.07091402     0.34300
C1413       C  0.61387176  0.85548828  0.17388885     0.37700
C1414       C  0.60822761  0.85362829  0.03970425    -0.05900
C1415       C  0.58270471  0.88332719  0.03273719     0.01300
C1416       C  0.58629948  0.91959095  0.04671407    -0.05500
C1417       C  0.61716933  0.92508374  0.06545250    -0.01700
C1418       C  0.63810448  0.89283698  0.07470649    -0.04200
C1419       C  0.61012627  0.81821222  0.02304668     0.35000
C1420       C  0.62610712  0.96289556  0.07624414     0.38600
C1421       C  0.55134552  0.87517148  0.01370079     0.37800
C1422       C  0.67076926  0.89762461  0.09296553     0.34700
C1423       C  0.65764042  0.81914615  0.12489590     0.35400
C1424       C  0.50460517  0.86771345  0.10937049     0.38600
N1425       N  0.52562698  0.86811082  0.99936123    -0.39500
N1426       N  0.61194781  0.79012775  0.00944046    -0.41000
N1427       N  0.63319673  0.99321693  0.08466056    -0.38800
N1428       N  0.69696892  0.90201340  0.10741743    -0.41200
N1429       N  0.52650691  0.79683448  0.05381020    -0.41000
N1430       N  0.47255312  0.87419253  0.10637782    -0.38600
N1431       N  0.62455017  0.85461017  0.19796172    -0.39600
N1432       N  0.68777630  0.80629257  0.12782141    -0.41300
Zr1433     Zr  0.75209998  0.11743913  0.94583656     2.17500
O1434       O  0.74156686  0.16628571  0.90794008    -0.52100
O1435       O  0.68905351  0.09052269  0.94073211    -0.75300
O1436       O  0.76316236  0.09147293  0.89408122    -0.82100
O1437       O  0.71735749  0.18073518  0.51490519    -0.83800
O1438       O  0.81582912  0.05318992  0.89308240    -0.79500
O1439       O  0.71618837  0.17471224  0.96208486    -0.91100
O1440       O  0.69252940  0.03465675  0.96693905    -0.77100
O1441       O  0.76585473  0.05096014  0.95108295    -0.86500
O1442       O  0.72992292  0.09925757  0.49390121    -0.86200
O1443       O  0.82023492  0.11328988  0.93865814    -0.73000
O1444       O  0.78598804  0.15493525  0.98109980    -0.85100
Zr1445     Zr  0.84979049  0.06380074  0.52782015     2.26400
Zr1446     Zr  0.83372329  0.04669202  0.94494411     2.06300
Zr1447     Zr  0.76343076  0.13297471  0.53137897     2.10000
Zr1448     Zr  0.74621148  0.03356740  0.49438053     1.78800
O1449       O  0.78325757  0.19373797  0.55209780    -0.93900
O1450       O  0.68706884  0.03172425  0.03272574    -0.41700
O1451       O  0.77995277  0.06605833  0.53306234    -0.78400
O1452       O  0.81431893  0.02938500  0.49085596    -0.97100
O1453       O  0.86991016  0.08302410  0.97945789    -0.90400
O1454       O  0.83193779  0.12991364  0.52568582    -0.93200
C1455       C  0.67482536  0.05903701  0.95075142     1.00500
C1456       C  0.70782498  0.19334619  0.48920922     1.13500
C1457       C  0.78842041  0.07002543  0.88008073     1.04300
O1458       O  0.81172053  0.98293476  0.93213119    -0.95400
O1459       O  0.88018860  0.00128767  0.95975799    -0.91100
O1460       O  0.88242850  0.00379645  0.50872455    -0.84300
C1461       C  0.88923356  0.98753613  0.98493781     1.10900
O1462       O  0.85958752  0.20219506  0.93951701    -0.97300
Zr1463     Zr  0.85384355  0.14880252  0.97471825     1.88900
O1464       O  0.91251772  0.09731218  0.53450560    -0.74000
O1465       O  0.89065444  0.04748938  0.91135025    -0.53200
O1466       O  0.90293178  0.14141451  0.93478009    -0.97900
O1467       O  0.84857059  0.21491686  0.50336273    -0.55100
O1468       O  0.90958906  0.15119579  0.50607608    -0.74500
C1469       C  0.92652096  0.12960236  0.52458900     0.97800
O1470       O  0.87123835  0.01384082  0.56163662    -0.63300
O1471       O  0.70357915  0.12843572  0.56139607    -0.58100
O1472       O  0.83074173  0.07988969  0.58179575    -0.94800
O1473       O  0.77764649  0.11778668  0.58361101    -0.93200
O1474       O  0.68644061  0.03530981  0.52451986    -0.93600
O1475       O  0.74416746  0.97698651  0.52671486    -0.92400
C1476       C  0.80408064  0.09906469  0.59663305     1.16700
H1477       H  0.70264654  0.10301535  0.49690669     0.32600
H1478       H  0.81804877  0.00213610  0.49258876     0.43500
H1479       H  0.84347887  0.14392829  0.54144570     0.37000
H1480       H  0.82817965  0.12177544  0.91875292     0.33500
H1481       H  0.71987799  0.96384234  0.46908178     0.25300
H1482       H  0.88769115  0.02528085  0.89799542     0.31200
H1483       H  0.91335353  0.11529750  0.93745867     0.37100
H1484       H  0.69265611  0.04940211  0.54276915     0.31600
H1485       H  0.70609316  0.10532195  0.57409151     0.30500
H1486       H  0.75922342  0.20645003  0.55920924     0.32100
H1487       H  0.85926980  0.21115861  0.01525342     0.31100
H1488       H  0.73241156  0.98545818  0.54610563     0.35100
H1489       H  0.87899577  0.02686992  0.57995734     0.27800
H1490       H  0.76521404  0.16651058  0.89488466     0.32100
H1491       H  0.84518587  0.19404851  0.92213216     0.34900
H1492       H  0.70432308  0.15015393  0.57548660     0.27500
H1493       H  0.84779007  0.99943926  0.56781667     0.40400
H1494       H  0.82040239  0.97932727  0.91097029     0.30500
H1495       H  0.66879179  0.04899462  0.02309445     0.38100
H1496       H  0.82119414  0.22218925  0.50346600     0.29900
H1497       H  0.88774280  0.07022148  0.89829607     0.30000
H1498       H  0.72162819  0.15559096  0.89541119     0.30300
Zr1499     Zr  0.84620378  0.06165374  0.77875937     2.17500
O1500       O  0.89350452  0.04734084  0.81578612    -0.52100
O1501       O  0.87298810  0.99627723  0.76860807    -0.75300
O1502       O  0.81975291  0.06072805  0.83170183    -0.82100
O1503       O  0.91113724  0.11489819  0.72724627    -0.83800
O1504       O  0.75536801  0.06986585  0.83406411    -0.79500
O1505       O  0.90754452  0.09477980  0.77576863    -0.91100
O1506       O  0.83982884  0.96929302  0.73183762    -0.77100
O1507       O  0.78880511  0.02735165  0.77082538    -0.86500
O1508       O  0.85004269  0.04627230  0.72631290    -0.86200
O1509       O  0.79529993  0.10784089  0.78872204    -0.73000
O1510       O  0.84888298  0.12025862  0.74929674    -0.85100
Zr1511     Zr  0.74370408  0.11024809  0.69858042     2.26400
Zr1512     Zr  0.73803275  0.07270176  0.78136556     2.06300
Zr1513     Zr  0.85360332  0.10408339  0.69752340     2.10000
Zr1514     Zr  0.79215878  0.01225143  0.71847048     1.78800
O1515       O  0.87680895  0.16594310  0.67885436    -0.93900
O1516       O  0.75615973  0.95892895  0.74122548    -0.41700
O1517       O  0.79690258  0.06859239  0.68852324    -0.78400
O1518       O  0.74008255  0.05304361  0.72962381    -0.97100
O1519       O  0.74030826  0.12876477  0.75021569    -0.90400
O1520       O  0.80032727  0.14707006  0.70600830    -0.93200
C1521       C  0.86690898  0.96940058  0.74964661     1.00500
C1522       C  0.92494178  0.11175494  0.75368361     1.13500
C1523       C  0.78752759  0.06588929  0.84663209     1.04300
O1524       O  0.70878527  0.01263462  0.79838730    -0.95400
O1525       O  0.67378862  0.07235953  0.76322757    -0.91100
O1526       O  0.67943787  0.08427624  0.71292465    -0.84300
C1527       C  0.66043728  0.07351762  0.73702263     1.10900
O1528       O  0.83565632  0.18595937  0.79799022    -0.97300
Zr1529     Zr  0.79685057  0.16396090  0.75767904     1.88900
O1530       O  0.72211445  0.17694478  0.70214069    -0.74000
O1531       O  0.69860500  0.11500001  0.81326756    -0.53200
O1532       O  0.77334807  0.20859025  0.79599969    -0.97900
O1533       O  0.83446363  0.21236332  0.73014006    -0.55100
O1534       O  0.73786952  0.19738317  0.74777966    -0.74500
C1535       C  0.71848656  0.19996592  0.72434792     0.97800
O1536       O  0.70310191  0.11681220  0.65573840    -0.63300
O1537       O  0.90475032  0.07291936  0.66782528    -0.58100
O1538       O  0.77046417  0.10481525  0.64546103    -0.94800
O1539       O  0.83538395  0.09888145  0.64436623    -0.93200
O1540       O  0.82161083  0.98258353  0.67397562    -0.93600
O1541       O  0.74855417  0.98794736  0.68214440    -0.92400
C1542       C  0.80336752  0.10070997  0.63093448     1.16700
H1543       H  0.87285990  0.03208524  0.72037137     0.32600
H1544       H  0.71938000  0.03578900  0.72598340     0.43500
H1545       H  0.80163033  0.16907090  0.69279203     0.37000
H1546       H  0.79601539  0.11852039  0.80847503     0.33500
H1547       H  0.76250369  0.95869620  0.76254082     0.25300
H1548       H  0.71701627  0.13197429  0.82285436     0.31200
H1549       H  0.77758566  0.23441970  0.78714357     0.37100
H1550       H  0.83079874  0.00430361  0.66126059     0.31600
H1551       H  0.91722137  0.09400108  0.65613697     0.30500
H1552       H  0.87362318  0.16523134  0.65701130     0.32100
H1553       H  0.85495892  0.21942035  0.74358385     0.31100
H1554       H  0.73371127  0.01056248  0.67585448     0.35100
H1555       H  0.67865009  0.10356574  0.66074452     0.27800
H1556       H  0.88407454  0.02415519  0.82664267     0.32100
H1557       H  0.86103484  0.17393721  0.79400293     0.34900
H1558       H  0.92386121  0.06514677  0.68233723     0.27500
H1559       H  0.69619396  0.14430287  0.65477173     0.40400
H1560       H  0.70846812  0.01355616  0.82048918     0.30500
H1561       H  0.72902222  0.96709964  0.74138657     0.38100
H1562       H  0.81755911  0.23515469  0.72992816     0.29900
H1563       H  0.68548903  0.13214937  0.79929481     0.30000
H1564       H  0.89159992  0.06816537  0.83072435     0.30300
Zr1565     Zr  0.56354569  0.36344888  0.91829322     2.17500
O1566       O  0.56978511  0.41412271  0.88042714    -0.52100
O1567       O  0.49752983  0.39038183  0.92113042    -0.75300
O1568       O  0.56931897  0.33770137  0.86622687    -0.82100
O1569       O  0.59941184  0.42906348  0.97845797    -0.83800
O1570       O  0.57125825  0.27238256  0.86693669    -0.79500
O1571       O  0.59254337  0.42680347  0.92821587    -0.91100
O1572       O  0.46413969  0.33836126  0.93475141    -0.77100
O1573       O  0.52492234  0.30681126  0.92511816    -0.86500
O1574       O  0.53524865  0.36721660  0.96815877    -0.86200
O1575       O  0.60633753  0.30851510  0.91386894    -0.73000
O1576       O  0.61473057  0.36307550  0.95280202    -0.85100
Zr1577     Zr  0.59022696  0.25804646  0.00505657     2.26400
Zr1578     Zr  0.56708533  0.25197220  0.92113991     2.06300
Zr1579     Zr  0.58583235  0.36722810  0.00230717     2.10000
Zr1580     Zr  0.49742194  0.31086156  0.97493673     1.78800
O1581       O  0.64489745  0.38646640  0.52250918    -0.93900
O1582       O  0.44873218  0.26427156  0.96307764    -0.41700
O1583       O  0.54710123  0.31125406  0.00977531    -0.78400
O1584       O  0.53827337  0.25650379  0.97114822    -0.97100
O1585       O  0.61748156  0.25325930  0.95528541    -0.90400
O1586       O  0.62933446  0.31362396  0.99840625    -0.93200
C1587       C  0.46577391  0.37391679  0.92907266     1.00500
C1588       C  0.60146406  0.44446333  0.95219268     1.13500
C1589       C  0.57257370  0.30503055  0.85266574     1.04300
O1590       O  0.51263646  0.22064728  0.89998447    -0.95400
O1591       O  0.55831262  0.18852975  0.94774787    -0.91100
O1592       O  0.57338898  0.19166178  0.99676081    -0.84300
C1593       C  0.56179543  0.17335577  0.97420033     1.10900
O1594       O  0.69189008  0.28715961  0.90341556    -0.97300
Zr1595     Zr  0.65636520  0.30837489  0.94852925     1.88900
O1596       O  0.65742562  0.23310873  0.50929858    -0.74000
O1597       O  0.61333623  0.20910404  0.89631722    -0.53200
O1598       O  0.70890484  0.32771720  0.97891405    -0.97900
O1599       O  0.69249406  0.35831551  0.92147324    -0.55100
O1600       O  0.68380785  0.24652172  0.96139335    -0.74500
C1601       C  0.68078831  0.22539927  0.98494459     0.97800
O1602       O  0.58094403  0.20446307  0.54264528    -0.63300
O1603       O  0.54930782  0.41058027  0.53428147    -0.58100
O1604       O  0.57809546  0.28022682  0.55624714    -0.94800
O1605       O  0.57330935  0.34518915  0.55589357    -0.93200
O1606       O  0.46415265  0.36128036  0.00311032    -0.93600
O1607       O  0.46635851  0.26595841  0.51495866    -0.92400
C1608       C  0.57243208  0.31263099  0.56961494     1.16700
H1609       H  0.52041496  0.39035380  0.97120675     0.32600
H1610       H  0.52134143  0.23539370  0.97590388     0.43500
H1611       H  0.64811344  0.31244809  0.51494058     0.37000
H1612       H  0.61992386  0.30825231  0.89465343     0.33500
H1613       H  0.42560143  0.27961579  0.95921007     0.25300
H1614       H  0.60232851  0.20292764  0.87695214     0.31200
H1615       H  0.73218343  0.32453533  0.96570163     0.37100
H1616       H  0.47945911  0.36515542  0.02088245     0.31600
H1617       H  0.56833520  0.43028934  0.53912746     0.30500
H1618       H  0.64267318  0.41474978  0.52269448     0.32100
H1619       H  0.68924048  0.38140015  0.93410053     0.31100
H1620       H  0.46867311  0.26170983  0.02185304     0.35100
H1621       H  0.60284019  0.20614321  0.55581657     0.27800
H1622       H  0.54495354  0.41476060  0.87068654     0.32100
H1623       H  0.71475356  0.27378085  0.91056042     0.34900
H1624       H  0.53192856  0.42366637  0.52065297     0.27500
H1625       H  0.55820591  0.21193075  0.55530673     0.40400
H1626       H  0.49548326  0.24197304  0.89475508     0.30500
H1627       H  0.45740451  0.25445600  0.94320801     0.38100
H1628       H  0.67738080  0.36401105  0.90380495     0.29900
H1629       H  0.63566311  0.22557722  0.89098368     0.30000
H1630       H  0.58868015  0.40533775  0.86478097     0.30300
Zr1631     Zr  0.56021694  0.36496508  0.67062578     2.17500
O1632       O  0.55483690  0.41949384  0.63650652    -0.52100
O1633       O  0.49407660  0.39053483  0.67646156    -0.75300
O1634       O  0.56295934  0.34401680  0.61735346    -0.82100
O1635       O  0.60689989  0.42361079  0.72547753    -0.83800
O1636       O  0.56609588  0.27910403  0.61602853    -0.79500
O1637       O  0.59517471  0.42403603  0.67594581    -0.91100
O1638       O  0.46275714  0.35775138  0.71409698    -0.77100
O1639       O  0.52265039  0.30867346  0.67861855    -0.86500
O1640       O  0.53916380  0.36571485  0.72262063    -0.86200
O1641       O  0.60551209  0.31382971  0.66038438    -0.73000
O1642       O  0.61497998  0.36335620  0.70186306    -0.85100
Zr1643     Zr  0.59945346  0.25529793  0.75031179     2.26400
Zr1644     Zr  0.56716218  0.25777476  0.66810538     2.06300
Zr1645     Zr  0.59327765  0.36410069  0.75336392     2.10000
Zr1646     Zr  0.50313374  0.30857088  0.73079171     1.78800
O1647       O  0.64850991  0.39111226  0.77700965    -0.93900
O1648       O  0.48163461  0.34241733  0.77613518    -0.41700
O1649       O  0.55663389  0.30728652  0.76155202    -0.78400
O1650       O  0.54381444  0.25556989  0.71964966    -0.97100
O1651       O  0.62112295  0.25630937  0.69878893    -0.90400
O1652       O  0.63725171  0.31204622  0.74384038    -0.93200
C1653       C  0.46500132  0.38433366  0.69460328     1.00500
C1654       C  0.60807615  0.43940811  0.69921566     1.13500
C1655       C  0.56592755  0.31201004  0.60298413     1.04300
O1656       O  0.50662444  0.23222758  0.65233369    -0.95400
O1657       O  0.56960821  0.19248835  0.68489505    -0.91100
O1658       O  0.57581626  0.19266191  0.73542446    -0.84300
C1659       C  0.56848523  0.17626701  0.71061019     1.10900
O1660       O  0.68935606  0.36069451  0.65976613    -0.97300
Zr1661     Zr  0.65878081  0.31209183  0.69217396     1.88900
O1662       O  0.66711483  0.23586627  0.74635314    -0.74000
O1663       O  0.60603823  0.21530080  0.63599047    -0.53200
O1664       O  0.69724399  0.29419748  0.64762515    -0.97900
O1665       O  0.71092227  0.33420395  0.72199203    -0.55100
O1666       O  0.68791707  0.25002775  0.69914177    -0.74500
C1667       C  0.68964045  0.23049885  0.72325616     0.97800
O1668       O  0.61403584  0.20531351  0.78657702    -0.63300
O1669       O  0.55712401  0.41327248  0.78107668    -0.58100
O1670       O  0.58398206  0.27423254  0.80381750    -0.94800
O1671       O  0.58307280  0.33932366  0.80559435    -0.93200
O1672       O  0.47047231  0.26319414  0.76466348    -0.93600
O1673       O  0.44670379  0.27675151  0.71300925    -0.92400
C1674       C  0.58020565  0.30604398  0.81862808     1.16700
H1675       H  0.52476301  0.38855010  0.72751112     0.32600
H1676       H  0.52673800  0.23419259  0.72321723     0.43500
H1677       H  0.65781567  0.31167054  0.75746467     0.37000
H1678       H  0.61734723  0.31542543  0.64060290     0.33500
H1679       H  0.48053500  0.36982799  0.77039914     0.25300
H1680       H  0.59013859  0.20922688  0.61892274     0.31200
H1681       H  0.67921623  0.28138514  0.63454681     0.37100
H1682       H  0.48406909  0.26519324  0.78349601     0.31600
H1683       H  0.57688418  0.43098531  0.78801068     0.30500
H1684       H  0.66973265  0.37264864  0.77366473     0.32100
H1685       H  0.70709581  0.36220363  0.72397182     0.31100
H1686       H  0.44847042  0.28024191  0.69102548     0.35100
H1687       H  0.63393215  0.21635174  0.79897500     0.27800
H1688       H  0.53002828  0.41629133  0.62705083     0.32100
H1689       H  0.70093892  0.37940055  0.67315557     0.34900
H1690       H  0.54375905  0.42830653  0.76590175     0.27500
H1691       H  0.59135048  0.20267177  0.80041291     0.40400
H1692       H  0.50094108  0.21026403  0.66590839     0.30500
H1693       H  0.45453252  0.33498545  0.77981779     0.38100
H1694       H  0.73422986  0.33140782  0.70875538     0.29900
H1695       H  0.62693221  0.23162884  0.62738602     0.30000
H1696       H  0.57439448  0.41558003  0.62008067     0.30300
Zr1697     Zr  0.45216754  0.98158888  0.92900439     2.17500
O1698       O  0.40240234  0.97039179  0.89369213    -0.52100
O1699       O  0.44847132  0.91242250  0.91719522    -0.75300
O1700       O  0.44331338  0.02340598  0.88582497    -0.82100
O1701       O  0.40526469  0.95290710  0.00341903    -0.83800
O1702       O  0.49791782  0.05773439  0.87584154    -0.79500
O1703       O  0.39237885  0.97264780  0.95647392    -0.91100
O1704       O  0.50029139  0.88482496  0.93691088    -0.77100
O1705       O  0.51721287  0.97614748  0.90933713    -0.86500
O1706       O  0.47841684  0.94209660  0.96655365    -0.86200
O1707       O  0.47939776  0.04467032  0.93251214    -0.73000
O1708       O  0.43956170  0.01327451  0.97672362    -0.85100
Zr1709     Zr  0.56753934  0.02869901  0.49419699     2.26400
Zr1710     Zr  0.54501831  0.03971397  0.91303396     2.06300
Zr1711     Zr  0.47818840  0.97075418  0.51513143     2.10000
Zr1712     Zr  0.54311249  0.93749463  0.94717765     1.78800
O1713       O  0.45732694  0.00261631  0.56159832    -0.93900
O1714       O  0.57127001  0.93586517  0.89598782    -0.41700
O1715       O  0.53607920  0.97123658  0.49020730    -0.78400
O1716       O  0.57220302  0.99891998  0.94896833    -0.97100
O1717       O  0.52872751  0.06670343  0.95890814    -0.90400
O1718       O  0.49467866  0.03856066  0.01578194    -0.93200
C1719       C  0.46725764  0.88290029  0.92580561     1.00500
C1720       C  0.38273146  0.95726062  0.98167852     1.13500
C1721       C  0.46182043  0.05140719  0.87315594     1.04300
O1722       O  0.57726567  0.00683684  0.87070198    -0.95400
O1723       O  0.61287113  0.05723955  0.92693866    -0.91100
O1724       O  0.62038964  0.04170177  0.97584880    -0.84300
C1725       C  0.63346790  0.05273141  0.95031255     1.10900
O1726       O  0.40312822  0.08293306  0.95897969    -0.97300
Zr1727     Zr  0.46729631  0.07635694  0.97809843     1.88900
O1728       O  0.57363533  0.10192364  0.48646734    -0.74000
O1729       O  0.56595429  0.09667092  0.88463995    -0.53200
O1730       O  0.43821651  0.13795706  0.96622009    -0.97900
O1731       O  0.44456099  0.09334644  0.02887708    -0.55100
O1732       O  0.51145092  0.12945457  0.97369031    -0.74500
C1733       C  0.54636278  0.13398371  0.98003210     0.97800
O1734       O  0.59755154  0.05155366  0.53890098    -0.63300
O1735       O  0.45774346  0.91667630  0.54700430    -0.58100
O1736       O  0.58932633  0.97495256  0.52425662    -0.94800
O1737       O  0.53667184  0.93755613  0.53397958    -0.93200
O1738       O  0.53633196  0.88389302  0.48711834    -0.93600
O1739       O  0.61174342  0.92153608  0.45753407    -0.92400
C1740       C  0.57325032  0.94428169  0.53493477     1.16700
H1741       H  0.46436367  0.91908285  0.97147328     0.32600
H1742       H  0.59856679  0.99279372  0.94405640     0.43500
H1743       H  0.50623819  0.04423172  0.53761012     0.37000
H1744       H  0.46431748  0.06439824  0.92294091     0.33500
H1745       H  0.59713549  0.92472879  0.89784661     0.25300
H1746       H  0.59410666  0.09801532  0.88559831     0.31200
H1747       H  0.43879722  0.15317468  0.98479368     0.37100
H1748       H  0.53345884  0.85915007  0.47677957     0.31600
H1749       H  0.47564294  0.91634374  0.56347230     0.30500
H1750       H  0.42899587  0.00203714  0.56192809     0.32100
H1751       H  0.46074990  0.11524592  0.03428988     0.31100
H1752       H  0.62328653  0.90811916  0.43991865     0.35100
H1753       H  0.61676060  0.07058446  0.53149435     0.27800
H1754       H  0.38582050  0.95040892  0.90314496     0.32100
H1755       H  0.38585808  0.06896866  0.97342979     0.34900
H1756       H  0.43302234  0.92458238  0.55681649     0.27500
H1757       H  0.57757952  0.06705655  0.54961124     0.40400
H1758       H  0.59963205  0.02305467  0.86488072     0.30500
H1759       H  0.55698717  0.91585058  0.88557274     0.38100
H1760       H  0.41882911  0.10464831  0.02670648     0.29900
H1761       H  0.56199238  0.09059505  0.86343181     0.30000
H1762       H  0.41543855  0.95710899  0.87655522     0.30300
Zr1763     Zr  0.46442137  0.96754950  0.67687461     2.17500
O1764       O  0.44077110  0.97804892  0.62721590    -0.52100
O1765       O  0.45832637  0.90116724  0.68311830    -0.75300
O1766       O  0.51041562  0.92051496  0.65893898    -0.82100
O1767       O  0.37510213  0.99554267  0.72217448    -0.83800
O1768       O  0.56067631  0.92035653  0.68848831    -0.79500
O1769       O  0.39531186  0.95352986  0.68628462    -0.91100
O1770       O  0.46729916  0.89212523  0.73261914    -0.77100
O1771       O  0.50311995  0.98806967  0.71513955    -0.86500
O1772       O  0.44228538  0.96974058  0.72767217    -0.86200
O1773       O  0.52294265  0.00116453  0.66327970    -0.73000
O1774       O  0.44860197  0.03316831  0.67847272    -0.85100
Zr1775     Zr  0.52672028  0.05980542  0.75346548     2.26400
Zr1776     Zr  0.56864641  0.98713842  0.70092304     2.06300
Zr1777     Zr  0.42733745  0.03704969  0.73027736     2.10000
Zr1778     Zr  0.49106229  0.95120147  0.75814508     1.78800
O1779       O  0.38573962  0.07222773  0.69762883    -0.93900
O1780       O  0.54262988  0.90396651  0.75608292    -0.41700
O1781       O  0.47348767  0.01768538  0.76570130    -0.78400
O1782       O  0.54613336  0.99260068  0.75186805    -0.97100
O1783       O  0.55476508  0.05275457  0.70384986    -0.90400
O1784       O  0.48088920  0.07674010  0.71811012    -0.93200
C1785       C  0.45814538  0.88036001  0.70636065     1.00500
C1786       C  0.37029194  0.96623914  0.70597534     1.13500
C1787       C  0.54036087  0.90480788  0.66894688     1.04300
O1788       O  0.61273076  0.94297613  0.72421240    -0.95400
O1789       O  0.61761117  0.03395796  0.71255542    -0.91100
O1790       O  0.59591224  0.06580101  0.75408538    -0.84300
C1791       C  0.62215553  0.05730688  0.73421082     1.10900
O1792       O  0.46514512  0.12231688  0.66027085    -0.97300
Zr1793     Zr  0.50769459  0.06838016  0.66911590     1.88900
O1794       O  0.54946171  0.12143289  0.73738177    -0.74000
O1795       O  0.61193132  0.98742336  0.65736129    -0.53200
O1796       O  0.48893310  0.07255711  0.61749027    -0.97900
O1797       O  0.55817586  0.07739128  0.63023913    -0.55100
O1798       O  0.54298473  0.12317354  0.68695458    -0.74500
C1799       C  0.55352579  0.13744829  0.71169748     0.97800
O1800       O  0.53855385  0.06240549  0.80660185    -0.63300
O1801       O  0.38024007  0.04175851  0.77185110    -0.58100
O1802       O  0.48259570  0.10948865  0.77444932    -0.94800
O1803       O  0.42395449  0.09518804  0.75823090    -0.93200
O1804       O  0.43870555  0.93702229  0.79426432    -0.93600
O1805       O  0.50073377  0.95342007  0.81164180    -0.92400
C1806       C  0.44668585  0.11702996  0.77168609     1.16700
H1807       H  0.42316838  0.95153811  0.73465196     0.32600
H1808       H  0.56531631  0.98717213  0.76614173     0.43500
H1809       H  0.47433820  0.10357879  0.71912282     0.37000
H1810       H  0.53227161  0.99511975  0.64324177     0.33500
H1811       H  0.53687604  0.88685539  0.77342913     0.25300
H1812       H  0.59709394  0.97316089  0.64289229     0.31200
H1813       H  0.48608932  0.04559440  0.61124121     0.37100
H1814       H  0.42200006  0.95994522  0.79386111     0.31600
H1815       H  0.35654815  0.05117639  0.76297518     0.30500
H1816       H  0.35994933  0.07054631  0.70763704     0.32100
H1817       H  0.56751057  0.05135467  0.62524195     0.31100
H1818       H  0.51834912  0.93190493  0.81552906     0.35100
H1819       H  0.52509401  0.03968202  0.81522610     0.27800
H1820       H  0.41482850  0.96670225  0.62808046     0.32100
H1821       H  0.47227440  0.14244221  0.67444541     0.34900
H1822       H  0.37451682  0.01485548  0.77752382     0.27500
H1823       H  0.56603245  0.05619923  0.80807510     0.40400
H1824       H  0.61295290  0.94993877  0.74557341     0.30500
H1825       H  0.53823431  0.88778632  0.73852923     0.38100
H1826       H  0.57956929  0.08953941  0.64034453     0.29900
H1827       H  0.61222372  0.01431658  0.65027965     0.30000
H1828       H  0.45625473  0.96035929  0.61433498     0.30300
Zr1829     Zr  0.44619368  0.65195502  0.89657052     2.17500
O1830       O  0.45160149  0.59966904  0.86057845    -0.52100
O1831       O  0.51192444  0.62570969  0.89854834    -0.75300
O1832       O  0.43686190  0.67149762  0.84320418    -0.82100
O1833       O  0.40159807  0.59728388  0.96102712    -0.83800
O1834       O  0.43368495  0.73640109  0.83972271    -0.79500
O1835       O  0.41214618  0.59257589  0.91058002    -0.91100
O1836       O  0.53895540  0.68226689  0.90193659    -0.77100
O1837       O  0.48289866  0.70991340  0.89657197    -0.86500
O1838       O  0.47392110  0.65477432  0.94542158    -0.86200
O1839       O  0.39992019  0.70309774  0.89134691    -0.73000
O1840       O  0.39575975  0.65583397  0.93524003    -0.85100
Zr1841     Zr  0.41861587  0.76833519  0.97686339     2.26400
Zr1842     Zr  0.43750487  0.76050016  0.89055573     2.06300
Zr1843     Zr  0.42287970  0.65813582  0.98302196     2.10000
Zr1844     Zr  0.51013726  0.71277822  0.94486471     1.78800
O1845       O  0.36586381  0.64015582  0.01314198    -0.93900
O1846       O  0.57121252  0.74458371  0.93389157    -0.41700
O1847       O  0.46100398  0.71514218  0.98344131    -0.78400
O1848       O  0.46869512  0.76495781  0.93747148    -0.97100
O1849       O  0.38899249  0.76380496  0.92990247    -0.90400
O1850       O  0.38007408  0.71159563  0.97836650    -0.93200
C1851       C  0.54154478  0.64611278  0.90266534     1.00500
C1852       C  0.39902525  0.57937348  0.93588977     1.13500
C1853       C  0.43257689  0.70288184  0.82802350     1.04300
O1854       O  0.49073895  0.78648956  0.85985950    -0.95400
O1855       O  0.44568865  0.82767977  0.90175695    -0.91100
O1856       O  0.44216786  0.82940251  0.95287901    -0.84300
C1857       C  0.44916547  0.84483605  0.92668323     1.10900
O1858       O  0.30236051  0.68900098  0.96885768    -0.97300
Zr1859     Zr  0.35150044  0.70720602  0.93107408     1.88900
O1860       O  0.35251712  0.79390383  0.97873894    -0.74000
O1861       O  0.38560538  0.79391353  0.86675395    -0.53200
O1862       O  0.31495502  0.65079269  0.91794314    -0.97900
O1863       O  0.31247165  0.72271841  0.88885388    -0.55100
O1864       O  0.31982101  0.76726024  0.94138921    -0.74500
C1865       C  0.32390644  0.79242888  0.96156565     0.97800
O1866       O  0.42344380  0.81930297  0.01351957    -0.63300
O1867       O  0.46022727  0.60970372  0.00826071    -0.58100
O1868       O  0.43110481  0.74741235  0.03084203    -0.94800
O1869       O  0.43456470  0.68222899  0.03373496    -0.93200
O1870       O  0.53948566  0.66985760  0.98006423    -0.93600
O1871       O  0.53887088  0.76339335  0.97362244    -0.92400
C1872       C  0.43627384  0.71373157  0.54536191     1.16700
H1873       H  0.48933334  0.63256530  0.94969224     0.32600
H1874       H  0.48687706  0.78562334  0.93693459     0.43500
H1875       H  0.36134198  0.71275375  0.99486050     0.37000
H1876       H  0.38575226  0.70045962  0.87353102     0.33500
H1877       H  0.58982458  0.72385993  0.92929178     0.25300
H1878       H  0.37266378  0.80922638  0.88280950     0.31200
H1879       H  0.32644192  0.62920954  0.92886481     0.37100
H1880       H  0.53037086  0.67925838  0.99997564     0.31600
H1881       H  0.45922404  0.58659843  0.99561822     0.30500
H1882       H  0.34660230  0.63398458  0.99839245     0.32100
H1883       H  0.28571735  0.71988755  0.89679950     0.31100
H1884       H  0.53233089  0.75668985  0.99476678     0.35100
H1885       H  0.45064762  0.82722065  0.01213511     0.27800
H1886       H  0.47190122  0.60739509  0.84558934     0.32100
H1887       H  0.27799641  0.69753626  0.96054141     0.34900
H1888       H  0.48706883  0.61850107  0.00581076     0.27500
H1889       H  0.40926996  0.84130575  0.00534284     0.40400
H1890       H  0.51379717  0.77427333  0.86775659     0.30500
H1891       H  0.56809247  0.75777421  0.91450129     0.38100
H1892       H  0.31624854  0.70133223  0.87458367     0.29900
H1893       H  0.39847161  0.81309579  0.85337447     0.30000
H1894       H  0.42760968  0.59994914  0.84966363     0.30300
Zr1895     Zr  0.44978537  0.65469683  0.64656378     2.17500
O1896       O  0.46562704  0.61291116  0.60427395    -0.52100
O1897       O  0.51416872  0.62614323  0.65731258    -0.75300
O1898       O  0.44683431  0.68134551  0.59341292    -0.82100
O1899       O  0.39250506  0.59320999  0.70257619    -0.83800
O1900       O  0.44181079  0.74653716  0.59361729    -0.79500
O1901       O  0.41216467  0.59480718  0.65328440    -0.91100
O1902       O  0.54571301  0.67774405  0.67147569    -0.77100
O1903       O  0.48531023  0.71164820  0.65517763    -0.86500
O1904       O  0.46693950  0.65073167  0.69852451    -0.86200
O1905       O  0.40596395  0.70813269  0.64074151    -0.73000
O1906       O  0.39246875  0.65427185  0.67905011    -0.85100
Zr1907     Zr  0.40561229  0.75883550  0.73107253     2.26400
Zr1908     Zr  0.44291601  0.76471142  0.64796148     2.06300
Zr1909     Zr  0.40949654  0.65027462  0.73015023     2.10000
Zr1910     Zr  0.50293130  0.70774575  0.70629907     1.78800
O1911       O  0.34764512  0.63450197  0.75435081    -0.93900
O1912       O  0.56321093  0.74007500  0.69272295    -0.41700
O1913       O  0.44682659  0.70557178  0.73811266    -0.78400
O1914       O  0.46319003  0.76119315  0.69850780    -0.97100
O1915       O  0.38653622  0.76265219  0.68041786    -0.90400
O1916       O  0.36702266  0.70366472  0.72399753    -0.93200
C1917       C  0.54412626  0.64202749  0.66772083     1.00500
C1918       C  0.39436324  0.57899984  0.67607605     1.13500
C1919       C  0.44280437  0.71410886  0.57943505     1.04300
O1920       O  0.50783542  0.77927546  0.63036821    -0.95400
O1921       O  0.44796492  0.82732742  0.67436273    -0.91100
O1922       O  0.43438279  0.82136485  0.72461558    -0.84300
C1923       C  0.44593473  0.84061912  0.70153624     1.10900
O1924       O  0.32814063  0.66554407  0.63325101    -0.97300
Zr1925     Zr  0.34977417  0.70667409  0.67292201     1.88900
O1926       O  0.33972245  0.78358274  0.72985969    -0.74000
O1927       O  0.40892159  0.81331126  0.62013215    -0.53200
O1928       O  0.31352262  0.73642136  0.63380326    -0.97900
O1929       O  0.29954983  0.66813043  0.69774932    -0.55100
O1930       O  0.31099239  0.76058728  0.68926818    -0.74500
C1931       C  0.31253565  0.78329250  0.71145777     0.97800
O1932       O  0.39000160  0.80335995  0.77179208    -0.63300
O1933       O  0.43603105  0.59652608  0.75754263    -0.58100
O1934       O  0.41945626  0.73352468  0.78155433    -0.94800
O1935       O  0.42161844  0.66852582  0.78227722    -0.93200
O1936       O  0.52842031  0.66406477  0.74307507    -0.93600
O1937       O  0.52404108  0.75089138  0.74493233    -0.92400
C1938       C  0.42403491  0.70125394  0.79536757     1.16700
H1939       H  0.48087606  0.62786517  0.70364258     0.32600
H1940       H  0.48136589  0.78085349  0.70275585     0.43500
H1941       H  0.34495347  0.70345228  0.73781828     0.37000
H1942       H  0.39452462  0.70814594  0.62158356     0.33500
H1943       H  0.55770939  0.76789402  0.69378397     0.25300
H1944       H  0.39116504  0.79883135  0.60785434     0.31200
H1945       H  0.33289940  0.75020476  0.62101044     0.37100
H1946       H  0.51537901  0.67148905  0.76228799     0.31600
H1947       H  0.43612136  0.57439053  0.74384213     0.30500
H1948       H  0.35396510  0.62113067  0.77306111     0.32100
H1949       H  0.29776273  0.64481368  0.68541558     0.31100
H1950       H  0.50227224  0.75218116  0.75984464     0.35100
H1951       H  0.37205860  0.78955310  0.78581993     0.27800
H1952       H  0.44073448  0.60389600  0.59735317     0.32100
H1953       H  0.35096852  0.65038890  0.62671838     0.34900
H1954       H  0.46340355  0.60293893  0.75920307     0.27500
H1955       H  0.41370610  0.80643594  0.78280093     0.40400
H1956       H  0.50972634  0.76971914  0.60958932     0.30500
H1957       H  0.58047653  0.73476486  0.70916455     0.38100
H1958       H  0.27562863  0.68240863  0.69434460     0.29900
H1959       H  0.39189643  0.82609154  0.63532078     0.30000
H1960       H  0.47738733  0.58986843  0.61306409     0.30300
Zr1961     Zr  0.15228171  0.94697894  0.52935931     2.17500
O1962       O  0.10696824  0.94684980  0.57264611    -0.52100
O1963       O  0.12319109  0.01242744  0.52624944    -0.75300
O1964       O  0.16943911  0.93854910  0.58245552    -0.82100
O1965       O  0.09365353  0.90650502  0.96794592    -0.83800
O1966       O  0.23432693  0.93630263  0.58342837    -0.79500
O1967       O  0.09089562  0.91738384  0.51954071    -0.91100
O1968       O  0.15915019  0.04725372  0.49239422    -0.77100
O1969       O  0.20862654  0.98578766  0.52508086    -0.86500
O1970       O  0.15300976  0.96899711  0.97795316    -0.86200
O1971       O  0.20505604  0.90275295  0.53501855    -0.73000
O1972       O  0.15487037  0.89132151  0.99373439    -0.85100
Zr1973     Zr  0.26505587  0.91359319  0.94414301     2.26400
Zr1974     Zr  0.26111136  0.94211525  0.53170054     2.06300
Zr1975     Zr  0.15686722  0.91649300  0.94375685     2.10000
Zr1976     Zr  0.20990977  0.00661932  0.97320385     1.78800
O1977       O  0.13490284  0.85650969  0.92295305    -0.93900
O1978       O  0.24234052  0.06127338  0.49986786    -0.41700
O1979       O  0.21245734  0.95584487  0.93786151    -0.78400
O1980       O  0.26313554  0.96625579  0.97941588    -0.97100
O1981       O  0.26291491  0.88758834  0.99374271    -0.90400
O1982       O  0.20981761  0.87342860  0.94869747    -0.93200
C1983       C  0.13014746  0.04278866  0.51016517     1.00500
C1984       C  0.07672724  0.90351662  0.99408735     1.13500
C1985       C  0.20067856  0.93437650  0.59649120     1.04300
O1986       O  0.28553394  0.00006003  0.55403952    -0.95400
O1987       O  0.32871989  0.94591082  0.51472954    -0.91100
O1988       O  0.32646576  0.93703426  0.96044933    -0.84300
C1989       C  0.34289373  0.94468711  0.98493075     1.10900
O1990       O  0.15993937  0.81574560  0.52713714    -0.97300
Zr1991     Zr  0.20800919  0.84843304  0.99865452     1.88900
O1992       O  0.29435374  0.84966284  0.94601479    -0.74000
O1993       O  0.29773892  0.90073330  0.56399912    -0.53200
O1994       O  0.23075603  0.81719375  0.54425826    -0.97900
O1995       O  0.18581734  0.79578514  0.96842172    -0.55100
O1996       O  0.26810044  0.81671035  0.98575955    -0.74500
C1997       C  0.29371680  0.82152620  0.96474978     0.97800
O1998       O  0.31083428  0.91406380  0.90139125    -0.63300
O1999       O  0.11379390  0.95189135  0.91232862    -0.58100
O2000       O  0.24507547  0.92591842  0.89111376    -0.94800
O2001       O  0.18009774  0.92602001  0.89126072    -0.93200
O2002       O  0.19098663  0.03331781  0.92567481    -0.93600
O2003       O  0.25747481  0.04993576  0.95031720    -0.92400
C2004       C  0.21314421  0.92929087  0.87737424     1.16700
H2005       H  0.12991686  0.98271195  0.97359102     0.32600
H2006       H  0.28394625  0.98421707  0.97683444     0.43500
H2007       H  0.21069608  0.85362287  0.93371119     0.37000
H2008       H  0.20247017  0.88887909  0.55366944     0.33500
H2009       H  0.22086907  0.08142331  0.99754608     0.25300
H2010       H  0.31758508  0.88844213  0.55076501     0.31200
H2011       H  0.25196394  0.83269667  0.55167201     0.37100
H2012       H  0.16422564  0.04198667  0.92937477     0.31600
H2013       H  0.08994951  0.95572642  0.92473663     0.30500
H2014       H  0.12066783  0.86431901  0.90529847     0.32100
H2015       H  0.15778159  0.79945998  0.96779384     0.31100
H2016       H  0.26963807  0.03529251  0.93353921     0.35100
H2017       H  0.31923997  0.94106518  0.89939032     0.27800
H2018       H  0.09807271  0.92005357  0.57534765     0.32100
H2019       H  0.16711916  0.78834545  0.52557292     0.34900
H2020       H  0.12517860  0.97778442  0.91036350     0.27500
H2021       H  0.33352402  0.89995144  0.90807633     0.40400
H2022       H  0.26250209  0.01508164  0.56025122     0.30500
H2023       H  0.26621091  0.04983215  0.50698183     0.38100
H2024       H  0.18890753  0.77261274  0.98096978     0.29900
H2025       H  0.31204147  0.91853620  0.57648484     0.30000
H2026       H  0.08424933  0.96123482  0.56632803     0.30300
Zr2027     Zr  0.15371993  0.94740932  0.77993909     2.17500
O2028       O  0.10500399  0.95952236  0.81959542    -0.52100
O2029       O  0.12482192  0.01292933  0.77342158    -0.75300
O2030       O  0.18056918  0.94197630  0.83133196    -0.82100
O2031       O  0.08523995  0.92018305  0.72662469    -0.83800
O2032       O  0.24547184  0.93601071  0.82771970    -0.79500
O2033       O  0.09592334  0.90893955  0.77520531    -0.91100
O2034       O  0.16474198  0.04655617  0.74170771    -0.77100
O2035       O  0.21003894  0.98419736  0.76766899    -0.86500
O2036       O  0.14866893  0.96637106  0.72836973    -0.86200
O2037       O  0.20638759  0.90242746  0.78408191    -0.73000
O2038       O  0.15066001  0.89093463  0.74859424    -0.85100
Zr2039     Zr  0.25401390  0.90372492  0.69136235     2.26400
Zr2040     Zr  0.26254905  0.94012798  0.77266291     2.06300
Zr2041     Zr  0.14545591  0.91089221  0.69747657     2.10000
Zr2042     Zr  0.20483399  0.00201289  0.71611669     1.78800
O2043       O  0.11602420  0.85038278  0.68446142    -0.93900
O2044       O  0.25285052  0.05004157  0.72645100    -0.41700
O2045       O  0.20143810  0.94650986  0.68618691    -0.78400
O2046       O  0.25740136  0.96118477  0.72154526    -0.97100
O2047       O  0.25907865  0.88397251  0.74225568    -0.90400
O2048       O  0.19787738  0.86652680  0.70183293    -0.93200
C2049       C  0.13419709  0.04335522  0.75801455     1.00500
C2050       C  0.07523584  0.90620023  0.75238450     1.13500
C2051       C  0.21337392  0.93689294  0.84349479     1.04300
O2052       O  0.28291353  0.00147625  0.79198084    -0.95400
O2053       O  0.32246240  0.94790296  0.74145781    -0.91100
O2054       O  0.31724257  0.93051576  0.69266908    -0.84300
C2055       C  0.33531687  0.94529927  0.71383211     1.10900
O2056       O  0.15741389  0.82691568  0.79275652    -0.97300
Zr2057     Zr  0.20296112  0.84735371  0.75293826     1.88900
O2058       O  0.28127940  0.83900363  0.69509123    -0.74000
O2059       O  0.31628197  0.90755237  0.79481169    -0.53200
O2060       O  0.23100353  0.80759892  0.79127180    -0.97900
O2061       O  0.16971516  0.79672228  0.72740991    -0.55100
O2062       O  0.25958693  0.81070924  0.73827775    -0.74500
C2063       C  0.28228223  0.81247424  0.71508439     0.97800
O2064       O  0.28806428  0.88704320  0.64426786    -0.63300
O2065       O  0.10022053  0.94238770  0.66554253    -0.58100
O2066       O  0.23091355  0.91993903  0.64176930    -0.94800
O2067       O  0.16594120  0.92162705  0.64390514    -0.93200
O2068       O  0.16495193  0.04106013  0.68464442    -0.93600
O2069       O  0.23442504  0.02009159  0.66764255    -0.92400
C2070       C  0.19871079  0.92472194  0.62935228     1.16700
H2071       H  0.12608214  0.98150860  0.72508241     0.32600
H2072       H  0.27637026  0.97949798  0.71458961     0.43500
H2073       H  0.19685347  0.84518787  0.68827171     0.37000
H2074       H  0.20654016  0.88997568  0.80333492     0.33500
H2075       H  0.24559348  0.07272970  0.71457218     0.25300
H2076       H  0.31165480  0.90904202  0.81674437     0.31200
H2077       H  0.23580258  0.82531146  0.80786451     0.37100
H2078       H  0.14302251  0.02447013  0.68026252     0.31600
H2079       H  0.07664841  0.92673975  0.66742431     0.30500
H2080       H  0.13426425  0.83819129  0.66985028     0.32100
H2081       H  0.14585577  0.79230913  0.73967325     0.31100
H2082       H  0.21994975  0.00628343  0.65257033     0.35100
H2083       H  0.31533093  0.88409201  0.64885800     0.27800
H2084       H  0.11400213  0.98232879  0.83025883     0.32100
H2085       H  0.16067330  0.79884105  0.79453792     0.34900
H2086       H  0.09346081  0.96669181  0.67580305     0.27500
H2087       H  0.27965216  0.86076789  0.63956436     0.40400
H2088       H  0.30245625  0.99479115  0.80645585     0.30500
H2089       H  0.24710937  0.05753368  0.74748068     0.38100
H2090       H  0.18531959  0.77345104  0.73050292     0.29900
H2091       H  0.31282419  0.88014294  0.79006126     0.30000
H2092       H  0.10698612  0.93808598  0.83404282     0.30300
Zr2093     Zr  0.94162640  0.86804105  0.51779148     2.17500
O2094       O  0.93779745  0.91252038  0.55974333    -0.52100
O2095       O  0.00961566  0.89290423  0.51147021    -0.75300
O2096       O  0.93732600  0.84792313  0.57204271    -0.82100
O2097       O  0.90429647  0.93148027  0.95742465    -0.83800
O2098       O  0.93167431  0.78317954  0.57448228    -0.79500
O2099       O  0.91477206  0.93079436  0.50535496    -0.91100
O2100       O  0.04466219  0.85057826  0.48311580    -0.77100
O2101       O  0.97871307  0.81094040  0.51263771    -0.86500
O2102       O  0.96505750  0.86779572  0.96601587    -0.86200
O2103       O  0.89500626  0.81730358  0.52664739    -0.73000
O2104       O  0.88727044  0.86834191  0.98577086    -0.85100
Zr2105     Zr  0.90484545  0.75767973  0.94029717     2.26400
Zr2106     Zr  0.93321729  0.76067364  0.52264192     2.06300
Zr2107     Zr  0.91150417  0.86747676  0.93472702     2.10000
Zr2108     Zr  0.99945552  0.80911272  0.96003579     1.78800
O2109       O  0.85534928  0.89385651  0.91176011    -0.93900
O2110       O  0.05881289  0.78451642  0.97968581    -0.41700
O2111       O  0.94715345  0.80968454  0.92875373    -0.78400
O2112       O  0.95789444  0.75829745  0.97327119    -0.97100
O2113       O  0.87978919  0.75969520  0.99095889    -0.90400
O2114       O  0.86747087  0.81530611  0.94378736    -0.93200
C2115       C  0.04121698  0.88148030  0.49773179     1.00500
C2116       C  0.90468309  0.94804740  0.98320778     1.13500
C2117       C  0.93291330  0.81614075  0.58711185     1.04300
O2118       O  0.98941063  0.73628662  0.54670427    -0.95400
O2119       O  0.94201568  0.69573286  0.50676888    -0.91100
O2120       O  0.92482444  0.69509569  0.96014024    -0.84300
C2121       C  0.93548348  0.68004265  0.98485597     1.10900
O2122       O  0.80590795  0.86111091  0.52085380    -0.97300
Zr2123     Zr  0.84250048  0.81607149  0.99426010     1.88900
O2124       O  0.83829550  0.73719337  0.93824034    -0.74000
O2125       O  0.88931431  0.71850696  0.55120455    -0.53200
O2126       O  0.81135544  0.78858195  0.53919453    -0.97900
O2127       O  0.78891448  0.83722468  0.96527682    -0.55100
O2128       O  0.81048369  0.75506653  0.98257997    -0.74500
C2129       C  0.81244523  0.73339193  0.95929635     0.97800
O2130       O  0.90928534  0.70897391  0.90151718    -0.63300
O2131       O  0.95339654  0.90851040  0.90328933    -0.58100
O2132       O  0.91920334  0.77552812  0.88659332    -0.94800
O2133       O  0.91993889  0.84065439  0.88349189    -0.93200
O2134       O  0.02111090  0.83895399  0.91285831    -0.93600
O2135       O  0.02331630  0.75753010  0.92756104    -0.92400
C2136       C  0.92288966  0.80713435  0.87128648     1.16700
H2137       H  0.98047362  0.88989666  0.96057716     0.32600
H2138       H  0.97501144  0.73673955  0.97092519     0.43500
H2139       H  0.84753967  0.81540398  0.92956856     0.37000
H2140       H  0.88265166  0.81963882  0.54624716     0.33500
H2141       H  0.05050638  0.76770319  0.99664904     0.25300
H2142       H  0.87973193  0.73348291  0.56870559     0.31200
H2143       H  0.78431128  0.78495866  0.53423197     0.37100
H2144       H  0.03229106  0.86383585  0.91831952     0.31600
H2145       H  0.93997738  0.91223585  0.88450048     0.30500
H2146       H  0.86579086  0.91235884  0.89664798     0.32100
H2147       H  0.79261554  0.86513684  0.96229093     0.31100
H2148       H  0.00208912  0.75219340  0.91432085     0.35100
H2149       H  0.93565740  0.69881385  0.90230669     0.27800
H2150       H  0.91073296  0.92095010  0.56174797     0.32100
H2151       H  0.82408910  0.88241242  0.52343536     0.34900
H2152       H  0.95257923  0.93403807  0.91279723     0.27500
H2153       H  0.89259346  0.68771118  0.90886722     0.40400
H2154       H  0.97963115  0.71499431  0.55962147     0.30500
H2155       H  0.03874772  0.75538531  0.49872176     0.38100
H2156       H  0.76608877  0.83494704  0.97911288     0.29900
H2157       H  0.86678422  0.71586238  0.53879961     0.30000
H2158       H  0.95232307  0.93557897  0.55301870     0.30300
Zr2159     Zr  0.94481185  0.86221834  0.77133994     2.17500
O2160       O  0.95463715  0.90719134  0.81194658    -0.52100
O2161       O  0.01051938  0.88920385  0.76721034    -0.75300
O2162       O  0.93561972  0.83807027  0.82363397    -0.82100
O2163       O  0.89278061  0.92181914  0.71860718    -0.83800
O2164       O  0.93203568  0.77305411  0.82378178    -0.79500
O2165       O  0.90914845  0.92173852  0.76721434    -0.91100
O2166       O  0.04694371  0.85220102  0.73559613    -0.77100
O2167       O  0.98218674  0.80587244  0.76297930    -0.86500
O2168       O  0.96896023  0.86756695  0.72014300    -0.86200
O2169       O  0.89933466  0.81032509  0.77738823    -0.73000
O2170       O  0.89192984  0.86268350  0.73830801    -0.85100
Zr2171     Zr  0.91055078  0.75768357  0.68647030     2.26400
Zr2172     Zr  0.93730223  0.75391256  0.76982929     2.06300
Zr2173     Zr  0.91617599  0.86785735  0.68784551     2.10000
Zr2174     Zr  0.00486464  0.81068388  0.71149094     1.78800
O2175       O  0.86572290  0.89707721  0.65958644    -0.93900
O2176       O  0.05449493  0.76736373  0.72706388    -0.41700
O2177       O  0.95305551  0.81106034  0.67890885    -0.78400
O2178       O  0.96399988  0.75741901  0.71906166    -0.97100
O2179       O  0.88504708  0.75484186  0.73698788    -0.90400
O2180       O  0.87274601  0.81452104  0.69352326    -0.93200
C2181       C  0.04221276  0.88062661  0.75295328     1.00500
C2182       C  0.89236022  0.93647851  0.74511625     1.13500
C2183       C  0.93112311  0.80568944  0.83758049     1.04300
O2184       O  0.99269619  0.72266645  0.78986110    -0.95400
O2185       O  0.94649739  0.69135005  0.74585576    -0.91100
O2186       O  0.94001208  0.69426793  0.69537765    -0.84300
C2187       C  0.94868931  0.67639168  0.71950162     1.10900
O2188       O  0.81483267  0.86124647  0.77321683    -0.97300
Zr2189     Zr  0.84783496  0.81132491  0.74412744     1.88900
O2190       O  0.84475907  0.73101483  0.69065355    -0.74000
O2191       O  0.89228189  0.71143538  0.79674876    -0.53200
O2192       O  0.81436782  0.78634353  0.78907605    -0.97900
O2193       O  0.79676261  0.83791861  0.71499400    -0.55100
O2194       O  0.81281525  0.75510472  0.73163777    -0.74500
C2195       C  0.81622005  0.73158347  0.70998975     0.97800
O2196       O  0.90119135  0.71721691  0.64312367    -0.63300
O2197       O  0.95576867  0.92042365  0.66803181    -0.58100
O2198       O  0.92286024  0.78404946  0.63480626    -0.94800
O2199       O  0.92569054  0.84917980  0.63466488    -0.93200
O2200       O  0.02974516  0.85239947  0.67128316    -0.93600
O2201       O  0.04312735  0.77628725  0.67348307    -0.92400
C2202       C  0.92703887  0.81669606  0.62095299     1.16700
H2203       H  0.98398124  0.89040887  0.71641505     0.32600
H2204       H  0.98259454  0.73755218  0.71497122     0.43500
H2205       H  0.85286131  0.81562869  0.67928378     0.37000
H2206       H  0.88561798  0.81058526  0.79653155     0.33500
H2207       H  0.07723640  0.78364205  0.72951759     0.25300
H2208       H  0.88411226  0.69283612  0.78171790     0.31200
H2209       H  0.78694803  0.78661224  0.78447809     0.37100
H2210       H  0.01097887  0.85080751  0.65546054     0.31600
H2211       H  0.96488063  0.91218350  0.64780709     0.30500
H2212       H  0.84209265  0.88307916  0.66584838     0.32100
H2213       H  0.80195958  0.86578321  0.71383217     0.31100
H2214       H  0.02753075  0.75366942  0.66876180     0.35100
H2215       H  0.92697121  0.70753208  0.63691371     0.27800
H2216       H  0.96342598  0.93138653  0.80222096     0.32100
H2217       H  0.83088344  0.86527169  0.79056405     0.34900
H2218       H  0.93736015  0.94134237  0.66436681     0.27500
H2219       H  0.88728682  0.69432859  0.65096079     0.40400
H2220       H  0.98305115  0.69784920  0.79794138     0.30500
H2221       H  0.04560323  0.76030948  0.74764060     0.38100
H2222       H  0.77329386  0.83558062  0.72812017     0.29900
H2223       H  0.90817642  0.69624724  0.81023750     0.30000
H2224       H  0.97746912  0.89769320  0.82202369     0.30300
Zr2225     Zr  0.75232935  0.61646615  0.99227830     2.17500
O2226       O  0.78337142  0.65461467  0.02972628    -0.52100
O2227       O  0.81639880  0.58647927  0.98819368    -0.75300
O2228       O  0.74015297  0.58972817  0.54442750    -0.82100
O2229       O  0.77408188  0.69157507  0.93094472    -0.83800
O2230       O  0.69331787  0.54492446  0.54563456    -0.79500
O2231       O  0.77787310  0.68074344  0.98105042    -0.91100
O2232       O  0.81966511  0.54431994  0.94966345    -0.77100
O2233       O  0.74024098  0.55059654  0.98382160    -0.86500
O2234       O  0.76964309  0.60485140  0.94044770    -0.86200
O2235       O  0.68414731  0.61117605  0.00194837    -0.73000
O2236       O  0.71294237  0.65578176  0.96100743    -0.85100
Zr2237     Zr  0.65184775  0.56616938  0.90991118     2.26400
Zr2238     Zr  0.67263212  0.54438147  0.99407346     2.06300
Zr2239     Zr  0.73122571  0.64377083  0.90927680     2.10000
Zr2240     Zr  0.75701513  0.53903648  0.93206056     1.78800
O2241       O  0.70716637  0.70588756  0.89342898    -0.93900
O2242       O  0.76520997  0.47565784  0.95400390    -0.41700
O2243       O  0.71933484  0.57720231  0.90022568    -0.78400
O2244       O  0.69100105  0.52926723  0.94274132    -0.97100
O2245       O  0.63273886  0.58025662  0.96113395    -0.90400
O2246       O  0.66394140  0.63321755  0.91710450    -0.93200
C2247       C  0.83440892  0.56274633  0.97061548     1.00500
C2248       C  0.78565933  0.70035394  0.95705258     1.13500
C2249       C  0.71763141  0.56582668  0.55914234     1.04300
O2250       O  0.69380793  0.48263176  0.01285570    -0.95400
O2251       O  0.63165785  0.49486107  0.97563857    -0.91100
O2252       O  0.62129664  0.50363672  0.92603193    -0.84300
C2253       C  0.61831468  0.48393614  0.95081742     1.10900
O2254       O  0.61699367  0.69550500  0.00055192    -0.97300
Zr2255     Zr  0.64522212  0.64626227  0.96789341     1.88900
O2256       O  0.58929994  0.59679461  0.90522275    -0.74000
O2257       O  0.61462047  0.54727520  0.02635079    -0.53200
O2258       O  0.59653307  0.62471249  0.00496102    -0.97900
O2259       O  0.65503297  0.71522170  0.96210156    -0.55100
O2260       O  0.59348420  0.65038019  0.93335275    -0.74500
C2261       C  0.57691002  0.62961243  0.91422426     0.97800
O2262       O  0.63914385  0.51738104  0.87292568    -0.63300
O2263       O  0.78929459  0.64559388  0.87696000    -0.58100
O2264       O  0.66467245  0.58975470  0.85678958    -0.94800
O2265       O  0.71376387  0.63266388  0.85647255    -0.93200
O2266       O  0.80504790  0.54260863  0.89095269    -0.93600
O2267       O  0.74911704  0.48997650  0.89439105    -0.92400
C2268       C  0.68875413  0.61272197  0.84269254     1.16700
H2269       H  0.79611688  0.61119857  0.93583842     0.32600
H2270       H  0.68819221  0.50219797  0.93938532     0.43500
H2271       H  0.65124813  0.64906118  0.90281495     0.37000
H2272       H  0.67718561  0.61857177  0.02223478     0.33500
H2273       H  0.78965302  0.46607577  0.94479013     0.25300
H2274       H  0.62771312  0.50925055  0.54236359     0.31200
H2275       H  0.60847103  0.62586043  0.02454813     0.37100
H2276       H  0.82070776  0.51909520  0.89278641     0.31600
H2277       H  0.81022543  0.65235582  0.89008473     0.30500
H2278       H  0.73026170  0.72177851  0.88939152     0.32100
H2279       H  0.65829543  0.71946316  0.94026055     0.31100
H2280       H  0.72189980  0.49173814  0.88938927     0.35100
H2281       H  0.62101726  0.52930711  0.85927179     0.27800
H2282       H  0.80286034  0.62888760  0.53680624     0.32100
H2283       H  0.63134705  0.69403313  0.01908441     0.34900
H2284       H  0.79428549  0.61846591  0.87171849     0.27500
H2285       H  0.66337428  0.51455738  0.86078917     0.40400
H2286       H  0.69880519  0.46685670  0.99478472     0.30500
H2287       H  0.77087332  0.48042685  0.97511446     0.38100
H2288       H  0.68055133  0.72061612  0.96978847     0.29900
H2289       H  0.61978596  0.55348874  0.54038496     0.30000
H2290       H  0.76796523  0.65710118  0.54158818     0.30300
Zr2291     Zr  0.65558418  0.56348465  0.66097159     2.17500
O2292       O  0.60996126  0.54564437  0.62376660    -0.52100
O2293       O  0.63109822  0.49714616  0.67317614    -0.75300
O2294       O  0.68441134  0.55890688  0.60812792    -0.82100
O2295       O  0.59009219  0.62960220  0.70400185    -0.83800
O2296       O  0.74861634  0.56865860  0.60813885    -0.79500
O2297       O  0.59424934  0.59643854  0.66023255    -0.91100
O2298       O  0.64868535  0.48092874  0.71965939    -0.77100
O2299       O  0.70931633  0.52712222  0.67558898    -0.86500
O2300       O  0.64530139  0.55545587  0.71431885    -0.86200
O2301       O  0.70887917  0.60673378  0.65034136    -0.73000
O2302       O  0.65362784  0.62537994  0.68591500    -0.85100
Zr2303     Zr  0.75132696  0.61859898  0.74222759     2.26400
Zr2304     Zr  0.76265872  0.56836834  0.66344625     2.06300
Zr2305     Zr  0.64243920  0.61625977  0.73879056     2.10000
Zr2306     Zr  0.70020289  0.52018603  0.72891431     1.78800
O2307       O  0.61864015  0.67803766  0.75668525    -0.93900
O2308       O  0.73183795  0.46208748  0.71027753    -0.41700
O2309       O  0.69626122  0.58010674  0.75348453    -0.78400
O2310       O  0.75448169  0.55724083  0.71695909    -0.97100
O2311       O  0.76125483  0.62907458  0.68911436    -0.90400
O2312       O  0.69765836  0.65622488  0.72899351    -0.93200
C2313       C  0.63000592  0.47509161  0.69664790     1.00500
C2314       C  0.57749855  0.62021763  0.67815707     1.13500
C2315       C  0.71732924  0.56370124  0.59384121     1.04300
O2316       O  0.77260629  0.50042844  0.65362733    -0.95400
O2317       O  0.82176632  0.56566987  0.69154225    -0.91100
O2318       O  0.81459763  0.58977645  0.73888138    -0.84300
C2319       C  0.83368120  0.57214104  0.71804231     1.10900
O2320       O  0.66488708  0.69516244  0.64098092    -0.97300
Zr2321     Zr  0.70778100  0.66650254  0.67628909     1.88900
O2322       O  0.77940510  0.68186136  0.73235221    -0.74000
O2323       O  0.82284472  0.57939810  0.63510427    -0.53200
O2324       O  0.73337285  0.69068529  0.62821712    -0.97900
O2325       O  0.68137768  0.72464552  0.69940646    -0.55100
O2326       O  0.76793091  0.69882038  0.68476799    -0.74500
C2327       C  0.78614287  0.70226845  0.70873598     0.97800
O2328       O  0.78423464  0.63398695  0.78766601    -0.63300
O2329       O  0.58665600  0.58728879  0.76451484    -0.58100
O2330       O  0.72309542  0.61844788  0.79456727    -0.94800
O2331       O  0.65837762  0.61321885  0.79357509    -0.93200
O2332       O  0.67097680  0.49750723  0.77619914    -0.93600
O2333       O  0.74211529  0.49583648  0.76671730    -0.92400
C2334       C  0.68973314  0.61523791  0.80820738     1.16700
H2335       H  0.62105835  0.54330912  0.71927002     0.32600
H2336       H  0.77311349  0.53965121  0.72432238     0.43500
H2337       H  0.69646274  0.67944957  0.74060516     0.37000
H2338       H  0.70951088  0.61609660  0.63011854     0.33500
H2339       H  0.72221602  0.44153381  0.72398724     0.25300
H2340       H  0.82551214  0.55748951  0.62121598     0.31200
H2341       H  0.76079841  0.68348341  0.62737525     0.37100
H2342       H  0.64709710  0.51263373  0.77893757     0.31600
H2343       H  0.57576261  0.60793752  0.77739801     0.30500
H2344       H  0.62683196  0.69658025  0.74085448     0.32100
H2345       H  0.67507678  0.74188335  0.68272339     0.31100
H2346       H  0.75046705  0.51892194  0.77737344     0.35100
H2347       H  0.80193581  0.61247629  0.79136829     0.27800
H2348       H  0.61996569  0.52158721  0.61471971     0.32100
H2349       H  0.63890097  0.69169390  0.65034142     0.34900
H2350       H  0.56779020  0.58394424  0.74893520     0.27500
H2351       H  0.80107401  0.65603987  0.78253277     0.40400
H2352       H  0.77886837  0.49900538  0.63186569     0.30500
H2353       H  0.72008921  0.45637205  0.69111646     0.38100
H2354       H  0.70339167  0.73717571  0.70843049     0.29900
H2355       H  0.81805554  0.60185493  0.62217310     0.30000
H2356       H  0.61247526  0.56501096  0.60751888     0.30300
Zr2357     Zr  0.06075775  0.15386421  0.54132925     2.17500
O2358       O  0.05302238  0.11308990  0.58580253    -0.52100
O2359       O  0.99404104  0.12626001  0.53935366    -0.75300
O2360       O  0.07056967  0.17970463  0.59274274    -0.82100
O2361       O  0.10311038  0.09015706  0.98307064    -0.83800
O2362       O  0.07687786  0.24453399  0.59151704    -0.79500
O2363       O  0.09692981  0.09509647  0.53266692    -0.91100
O2364       O  0.96734934  0.18203729  0.53048869    -0.77100
O2365       O  0.02510448  0.21179615  0.53546421    -0.86500
O2366       O  0.03650912  0.14814877  0.99220479    -0.86200
O2367       O  0.10831261  0.20462841  0.54217465    -0.73000
O2368       O  0.11327056  0.15178673  0.50356726    -0.85100
Zr2369     Zr  0.09530328  0.25747717  0.95311995     2.26400
Zr2370     Zr  0.07139425  0.26227339  0.53782974     2.06300
Zr2371     Zr  0.08896541  0.14848562  0.95553446     2.10000
Zr2372     Zr  0.99972921  0.20462012  0.98550759     1.78800
O2373       O  0.14760958  0.12747602  0.92892796    -0.93900
O2374       O  0.94151389  0.24279066  0.48913075    -0.41700
O2375       O  0.05197105  0.20490910  0.94954982    -0.78400
O2376       O  0.04061129  0.25861809  0.98881342    -0.97100
O2377       O  0.12147031  0.25922767  0.50004314    -0.90400
O2378       O  0.13325990  0.20094804  0.95824820    -0.93200
C2379       C  0.96407366  0.14603955  0.53360312     1.00500
C2380       C  0.10384294  0.07535973  0.50900303     1.13500
C2381       C  0.07646874  0.21218335  0.60584389     1.04300
O2382       O  0.01685215  0.29341806  0.56280690    -0.95400
O2383       O  0.06610557  0.32487583  0.51210527    -0.91100
O2384       O  0.06740822  0.32075427  0.96196718    -0.84300
C2385       C  0.06108919  0.33768560  0.48531474     1.10900
O2386       O  0.19513488  0.14440528  0.51097748    -0.97300
Zr2387     Zr  0.15872167  0.20300781  0.50351399     1.88900
O2388       O  0.16017409  0.28703618  0.95638457    -0.74000
O2389       O  0.11700394  0.30298869  0.56219318    -0.53200
O2390       O  0.19672494  0.20946058  0.54740080    -0.97900
O2391       O  0.21074633  0.17797611  0.97762857    -0.55100
O2392       O  0.19031383  0.26234138  0.99604079    -0.74500
C2393       C  0.18750101  0.28694065  0.97499068     0.97800
O2394       O  0.10424622  0.29503871  0.90710108    -0.63300
O2395       O  0.05597672  0.09514439  0.93270422    -0.58100
O2396       O  0.08135856  0.23237646  0.90233298    -0.94800
O2397       O  0.07493681  0.16765429  0.90329464    -0.93200
O2398       O  0.97432110  0.14983315  0.95945265    -0.93600
O2399       O  0.96256826  0.22671109  0.94384046    -0.92400
C2400       C  0.07439925  0.20014889  0.88924226     1.16700
H2401       H  0.02265927  0.12455028  0.99004824     0.32600
H2402       H  0.02252801  0.27882456  0.98532772     0.43500
H2403       H  0.15341154  0.20005248  0.94274270     0.37000
H2404       H  0.12207450  0.20403881  0.56032345     0.33500
H2405       H  0.92162290  0.22420182  0.49584173     0.25300
H2406       H  0.13884209  0.28584005  0.56606785     0.31200
H2407       H  0.22359042  0.20790700  0.53945856     0.37100
H2408       H  0.98996391  0.14840735  0.94046706     0.31600
H2409       H  0.05626797  0.10047095  0.91096661     0.30500
H2410       H  0.13996328  0.12213330  0.90835577     0.32100
H2411       H  0.21718055  0.19803580  0.96249308     0.31100
H2412       H  0.93995294  0.20975612  0.94335673     0.35100
H2413       H  0.07961824  0.30843976  0.90449210     0.27800
H2414       H  0.05700036  0.08634430  0.57913670     0.32100
H2415       H  0.18326987  0.13260536  0.52931386     0.34900
H2416       H  0.07331885  0.07284411  0.93436105     0.27500
H2417       H  0.12237816  0.31567118  0.91172233     0.40400
H2418       H  0.02813445  0.31350128  0.57515802     0.30500
H2419       H  0.94443086  0.25950765  0.50649753     0.38100
H2420       H  0.20021144  0.15654278  0.96623267     0.29900
H2421       H  0.12706262  0.32074750  0.54639353     0.30000
H2422       H  0.02543246  0.11442157  0.59176398     0.30300
Zr2423     Zr  0.05444975  0.15052552  0.78636221     2.17500
O2424       O  0.03773247  0.09971018  0.82234368    -0.52100
O2425       O  0.98719631  0.12579787  0.77607160    -0.75300
O2426       O  0.06050995  0.17014490  0.84090345    -0.82100
O2427       O  0.11192413  0.09481946  0.73002586    -0.83800
O2428       O  0.06775218  0.23473035  0.84328401    -0.79500
O2429       O  0.08987874  0.09026772  0.77856803    -0.91100
O2430       O  0.95977297  0.16487168  0.74238283    -0.77100
O2431       O  0.02053818  0.20959176  0.78208838    -0.86500
O2432       O  0.03776667  0.15365148  0.73467401    -0.86200
O2433       O  0.10239029  0.19964729  0.79433657    -0.73000
O2434       O  0.11210046  0.15294826  0.75360517    -0.85100
Zr2435     Zr  0.10166657  0.26255357  0.70707000     2.26400
Zr2436     Zr  0.06706095  0.25834199  0.79138891     2.06300
Zr2437     Zr  0.09456586  0.15351250  0.70295419     2.10000
Zr2438     Zr  0.00392235  0.21299459  0.73064453     1.78800
O2439       O  0.15302285  0.13368483  0.67557509    -0.93900
O2440       O  0.95430610  0.24818115  0.75921818    -0.41700
O2441       O  0.05906735  0.21116175  0.69793587    -0.78400
O2442       O  0.04537719  0.26294001  0.74096191    -0.97100
O2443       O  0.12210529  0.25961473  0.75732801    -0.90400
O2444       O  0.13839401  0.20510206  0.71017599    -0.93200
C2445       C  0.95968708  0.13502993  0.75850514     1.00500
C2446       C  0.10914689  0.07737963  0.75565183     1.13500
C2447       C  0.06628609  0.20144514  0.85590264     1.04300
O2448       O  0.00932980  0.28252493  0.81733167    -0.95400
O2449       O  0.06017669  0.32394463  0.77415082    -0.91100
O2450       O  0.07663933  0.32415831  0.72412869    -0.84300
C2451       C  0.06381017  0.34028412  0.74839749     1.10900
O2452       O  0.19169864  0.14669209  0.77930808    -0.97300
Zr2453     Zr  0.15813709  0.20259209  0.76056661     1.88900
O2454       O  0.16560930  0.29037024  0.71282867    -0.74000
O2455       O  0.11074385  0.29967615  0.81750766    -0.53200
O2456       O  0.18700890  0.21411430  0.80814054    -0.97900
O2457       O  0.21359168  0.18253734  0.72909790    -0.55100
O2458       O  0.19239765  0.26349273  0.75315988    -0.74500
C2459       C  0.19104494  0.28948177  0.73274499     0.97800
O2460       O  0.11247697  0.30758020  0.66556655    -0.63300
O2461       O  0.06198268  0.10376266  0.67587449    -0.58100
O2462       O  0.08943736  0.24308204  0.65378911    -0.94800
O2463       O  0.08509944  0.17804164  0.65194290    -0.93200
O2464       O  0.96672550  0.19289192  0.68886646    -0.93600
O2465       O  0.98595215  0.26061420  0.69373123    -0.92400
C2466       C  0.08421962  0.21136138  0.63921128     1.16700
H2467       H  0.02331054  0.13174221  0.72857120     0.32600
H2468       H  0.02754563  0.28358463  0.73839737     0.43500
H2469       H  0.15918282  0.20530893  0.69518073     0.37000
H2470       H  0.11406838  0.19622055  0.81323562     0.33500
H2471       H  0.96263169  0.27527868  0.75886515     0.25300
H2472       H  0.09541295  0.32243226  0.82363417     0.31200
H2473       H  0.17569345  0.23863832  0.81524556     0.37100
H2474       H  0.97808888  0.16805711  0.68251751     0.31600
H2475       H  0.06263860  0.08064956  0.68877003     0.30500
H2476       H  0.17217812  0.13090633  0.69104894     0.32100
H2477       H  0.23562244  0.18423136  0.74213480     0.31100
H2478       H  0.97201772  0.28104498  0.70496494     0.35100
H2479       H  0.11237377  0.33346304  0.67448086     0.27800
H2480       H  0.01683055  0.11033024  0.83551782     0.32100
H2481       H  0.18139561  0.12466267  0.76843629     0.34900
H2482       H  0.03473343  0.11158986  0.67651135     0.27500
H2483       H  0.13941460  0.30347472  0.65848427     0.40400
H2484       H  0.01868852  0.30127839  0.83178666     0.30500
H2485       H  0.93179429  0.24771233  0.74660605     0.38100
H2486       H  0.21826596  0.20352470  0.71441458     0.29900
H2487       H  0.11602757  0.28659189  0.83655206     0.30000
H2488       H  0.05983391  0.09714941  0.83526620     0.30300
Zr2489     Zr  0.35406048  0.44889923  0.91214953     2.17500
O2490       O  0.40417999  0.45711663  0.87276955    -0.52100
O2491       O  0.37832698  0.51694920  0.91720670    -0.75300
O2492       O  0.32951657  0.44544375  0.86017246    -0.82100
O2493       O  0.41474132  0.39074936  0.96234931    -0.83800
O2494       O  0.26467324  0.43927261  0.86233904    -0.79500
O2495       O  0.41548126  0.41579356  0.91525429    -0.91100
O2496       O  0.35196611  0.54289983  0.95975921    -0.77100
O2497       O  0.29699080  0.48457870  0.92273638    -0.86500
O2498       O  0.35761348  0.46634038  0.96373032    -0.86200
O2499       O  0.30224472  0.40362441  0.90691988    -0.73000
O2500       O  0.35341271  0.39113198  0.94294875    -0.85100
Zr2501     Zr  0.24883283  0.40428930  0.99928732     2.26400
Zr2502     Zr  0.24495323  0.44052124  0.91667406     2.06300
Zr2503     Zr  0.35834307  0.40950245  0.99399908     2.10000
Zr2504     Zr  0.30036300  0.50216675  0.97432229     1.78800
O2505       O  0.38165143  0.35175502  0.01810856    -0.93900
O2506       O  0.27149789  0.55672692  0.94929421    -0.41700
O2507       O  0.30195589  0.44625955  0.00508761    -0.78400
O2508       O  0.24818334  0.46114268  0.96773398    -0.97100
O2509       O  0.24486713  0.38489983  0.94832476    -0.90400
O2510       O  0.30504148  0.36663931  0.98957213    -0.93200
C2511       C  0.37539852  0.54390712  0.93717935     1.00500
C2512       C  0.43034222  0.39580570  0.93588937     1.13500
C2513       C  0.29728790  0.44062573  0.84735029     1.04300
O2514       O  0.21787574  0.49975089  0.89778032    -0.95400
O2515       O  0.18262014  0.44787959  0.94471373    -0.91100
O2516       O  0.18600079  0.43241268  0.99424962    -0.84300
C2517       C  0.16840077  0.44584961  0.97197938     1.10900
O2518       O  0.34682585  0.30610636  0.91224517    -0.97300
Zr2519     Zr  0.30069641  0.34785744  0.93843692     1.88900
O2520       O  0.22320960  0.33836140  0.99527100    -0.74000
O2521       O  0.20168428  0.40060325  0.88919409    -0.53200
O2522       O  0.28549000  0.32256648  0.88970858    -0.97900
O2523       O  0.32024233  0.29064129  0.96559253    -0.55100
O2524       O  0.23785704  0.31922775  0.94805910    -0.74500
C2525       C  0.21767703  0.31681180  0.97255216     0.97800
O2526       O  0.20654201  0.39468484  0.54473455    -0.63300
O2527       O  0.40801773  0.44547700  0.51723230    -0.58100
O2528       O  0.27120386  0.41840236  0.55059144    -0.94800
O2529       O  0.33619996  0.42115747  0.54831102    -0.93200
O2530       O  0.32254316  0.52536480  0.02169860    -0.93600
O2531       O  0.25042273  0.53343128  0.00550417    -0.92400
C2532       C  0.30353676  0.42309420  0.56305281     1.16700
H2533       H  0.38081159  0.48011648  0.96733494     0.32600
H2534       H  0.22837421  0.47924469  0.97318549     0.43500
H2535       H  0.30573926  0.34556637  0.00362603     0.37000
H2536       H  0.30342486  0.39211967  0.88745235     0.33500
H2537       H  0.28307321  0.57965391  0.95810931     0.25300
H2538       H  0.20533746  0.37434541  0.89708621     0.31200
H2539       H  0.25947554  0.31161737  0.89241005     0.37100
H2540       H  0.34168906  0.50623682  0.02773406     0.31600
H2541       H  0.41043856  0.43412040  0.53737999     0.30500
H2542       H  0.37194845  0.35517066  0.54114087     0.32100
H2543       H  0.29946329  0.28552378  0.98086793     0.31100
H2544       H  0.25917729  0.56004230  0.00847186     0.35100
H2545       H  0.18067412  0.38942886  0.53769231     0.27800
H2546       H  0.39707480  0.48049286  0.86164324     0.32100
H2547       H  0.37212872  0.31474442  0.91858442     0.34900
H2548       H  0.42282964  0.42720325  0.02821736     0.27500
H2549       H  0.20317291  0.41372221  0.05440049     0.40400
H2550       H  0.24011886  0.51444967  0.88944154     0.30500
H2551       H  0.28222941  0.55638761  0.92844347     0.38100
H2552       H  0.34250579  0.29843475  0.97699230     0.29900
H2553       H  0.17554393  0.40791439  0.89648280     0.30000
H2554       H  0.40118903  0.43581983  0.85855084     0.30300
Zr2555     Zr  0.35480219  0.44753256  0.66153538     2.17500
O2556       O  0.40198820  0.45773659  0.62029725    -0.52100
O2557       O  0.38312948  0.51267746  0.66411401    -0.75300
O2558       O  0.33436894  0.43728556  0.60925911    -0.82100
O2559       O  0.41834131  0.41898401  0.72132673    -0.83800
O2560       O  0.26955797  0.43152857  0.61045320    -0.79500
O2561       O  0.41292344  0.41260713  0.67113763    -0.91100
O2562       O  0.33521590  0.55018943  0.68285693    -0.77100
O2563       O  0.29731390  0.48409630  0.66687739    -0.86500
O2564       O  0.35473081  0.47410384  0.71122577    -0.86200
O2565       O  0.30431413  0.40053025  0.65823719    -0.73000
O2566       O  0.35546128  0.39548263  0.69785595    -0.85100
Zr2567     Zr  0.24618197  0.41466392  0.74842410     2.26400
Zr2568     Zr  0.24695354  0.43804889  0.66330907     2.06300
Zr2569     Zr  0.35490805  0.42264832  0.74686759     2.10000
Zr2570     Zr  0.29719878  0.51012240  0.71620883     1.78800
O2571       O  0.37854784  0.36372864  0.76886311    -0.93900
O2572       O  0.25018382  0.55574538  0.69882934    -0.41700
O2573       O  0.29769392  0.45958946  0.75243240    -0.78400
O2574       O  0.24539640  0.46698460  0.71229302    -0.97100
O2575       O  0.24744625  0.38716407  0.69960971    -0.90400
O2576       O  0.30361096  0.37729596  0.74412830    -0.93200
C2577       C  0.36956998  0.54532205  0.67276814     1.00500
C2578       C  0.43107244  0.40854581  0.69512693     1.13500
C2579       C  0.30254535  0.43156311  0.59621187     1.04300
O2580       O  0.22705628  0.49675825  0.63873691    -0.95400
O2581       O  0.18124867  0.44288256  0.68400511    -0.91100
O2582       O  0.18248662  0.43581116  0.73470397    -0.84300
C2583       C  0.16528903  0.44315817  0.71048778     1.10900
O2584       O  0.35698449  0.31771098  0.66814240    -0.97300
Zr2585     Zr  0.30444704  0.35043483  0.69507090     1.88900
O2586       O  0.21880184  0.34868497  0.74868468    -0.74000
O2587       O  0.20302475  0.39718451  0.63724732    -0.53200
O2588       O  0.28314481  0.31405465  0.65268077    -0.97900
O2589       O  0.32937278  0.29815279  0.72499726    -0.55100
O2590       O  0.24692041  0.31567470  0.70996555    -0.74500
C2591       C  0.22107100  0.31958136  0.73087245     0.97800
O2592       O  0.20371963  0.42123026  0.79291101    -0.63300
O2593       O  0.40311407  0.45611904  0.77439697    -0.58100
O2594       O  0.26673704  0.42666746  0.80058564    -0.94800
O2595       O  0.33133367  0.43410969  0.79923617    -0.93200
O2596       O  0.33782504  0.54837947  0.74706983    -0.93600
O2597       O  0.26262110  0.54229278  0.75740948    -0.92400
C2598       C  0.29838340  0.43367289  0.81361047     1.16700
H2599       H  0.37680706  0.48971586  0.71464668     0.32600
H2600       H  0.22376432  0.48387910  0.71523319     0.43500
H2601       H  0.30400884  0.35821481  0.75980013     0.37000
H2602       H  0.30629727  0.38638388  0.63980335     0.33500
H2603       H  0.26012843  0.58117085  0.70429642     0.25300
H2604       H  0.21961263  0.37888196  0.62583766     0.31200
H2605       H  0.28420574  0.28692254  0.65922844     0.37100
H2606       H  0.34151729  0.53244892  0.76508967     0.31600
H2607       H  0.39040465  0.47983962  0.78179048     0.30500
H2608       H  0.39739057  0.35379438  0.75363083     0.32100
H2609       H  0.31009345  0.29394604  0.74158712     0.31100
H2610       H  0.23926297  0.52672338  0.76129027     0.35100
H2611       H  0.19124703  0.44658578  0.79101431     0.27800
H2612       H  0.40926628  0.43182648  0.61309934     0.32100
H2613       H  0.36134946  0.33277641  0.64947576     0.34900
H2614       H  0.40661239  0.44035895  0.79254458     0.27500
H2615       H  0.18301843  0.40236221  0.79047863     0.40400
H2616       H  0.20559855  0.50674803  0.65165264     0.30500
H2617       H  0.25338599  0.55509408  0.67675484     0.38100
H2618       H  0.35186119  0.30884052  0.73458377     0.29900
H2619       H  0.19017648  0.38118443  0.65305175     0.30000
H2620       H  0.42520045  0.46740996  0.62957730     0.30300
Zr2621     Zr  0.04102627  0.46672848  0.01537681     2.17500
O2622       O  0.06478495  0.46748386  0.56327195    -0.52100
O2623       O  0.05670517  0.39900761  0.50339223    -0.75300
O2624       O  0.99975914  0.41560321  0.54277337    -0.82100
O2625       O  0.12382515  0.49178634  0.95983142    -0.83800
O2626       O  0.93733750  0.43183120  0.53710199    -0.79500
O2627       O  0.10903350  0.45385595  0.00039933    -0.91100
O2628       O  0.03052298  0.39128787  0.95848938    -0.77100
O2629       O  0.98394588  0.44913368  0.99195964    -0.86500
O2630       O  0.05271104  0.47025819  0.96267716    -0.86200
O2631       O  0.98907456  0.50421730  0.53207093    -0.73000
O2632       O  0.05959088  0.53207167  0.00621394    -0.85100
Zr2633     Zr  0.96756507  0.56017396  0.94460773     2.26400
Zr2634     Zr  0.93390073  0.48623645  0.50563968     2.06300
Zr2635     Zr  0.07128276  0.53509194  0.95312943     2.10000
Zr2636     Zr  0.99782903  0.44994844  0.93993588     1.78800
O2637       O  0.11772472  0.57326623  0.97869879    -0.93900
O2638       O  0.95243092  0.39721214  0.93903829    -0.41700
O2639       O  0.01598469  0.51530334  0.92735025    -0.78400
O2640       O  0.94834802  0.49517721  0.95409193    -0.97100
O2641       O  0.95343281  0.55835086  0.99696182    -0.90400
O2642       O  0.02302051  0.57886350  0.96979563    -0.93200
C2643       C  0.04575227  0.37965948  0.98283472     1.00500
C2644       C  0.13148937  0.46484664  0.97817439     1.13500
C2645       C  0.96337875  0.41058459  0.54731896     1.04300
O2646       O  0.88728197  0.44108166  0.48777411    -0.95400
O2647       O  0.88349129  0.53724337  0.99806618    -0.91100
O2648       O  0.89803639  0.56127951  0.95166253    -0.84300
C2649       C  0.87467972  0.55453807  0.97412644     1.10900
O2650       O  0.03380518  0.56892566  0.56951088    -0.97300
Zr2651     Zr  0.00896906  0.57584821  0.02151219     1.88900
O2652       O  0.94687471  0.62235021  0.96012478    -0.74000
O2653       O  0.89759914  0.49993866  0.55233882    -0.53200
O2654       O  0.95697230  0.58488351  0.56038312    -0.97900
O2655       O  0.05157729  0.63116196  0.01721881    -0.55100
O2656       O  0.96976468  0.63004507  0.00650844    -0.74500
C2657       C  0.95098591  0.64137389  0.98398418     0.97800
O2658       O  0.94602338  0.56246898  0.89368868    -0.63300
O2659       O  0.11523899  0.52732478  0.90973970    -0.58100
O2660       O  0.00462593  0.60707762  0.91563108    -0.94800
O2661       O  0.06703665  0.59112181  0.92055697    -0.93200
O2662       O  0.04071071  0.43652552  0.89679423    -0.93600
O2663       O  0.96017974  0.44792016  0.89559937    -0.92400
C2664       C  0.04058946  0.61348290  0.91148016     1.16700
H2665       H  0.07102074  0.45176855  0.95497454     0.32600
H2666       H  0.92536339  0.48951695  0.94382430     0.43500
H2667       H  0.03005168  0.60528922  0.96643897     0.37000
H2668       H  0.98453682  0.50056718  0.55336267     0.33500
H2669       H  0.96600295  0.37692893  0.92733324     0.25300
H2670       H  0.87937283  0.52067234  0.54781989     0.31200
H2671       H  0.95882564  0.61297361  0.56293808     0.37100
H2672       H  0.06236712  0.42211740  0.90490181     0.31600
H2673       H  0.12732438  0.55266215  0.90634648     0.30500
H2674       H  0.14282803  0.56644089  0.96901956     0.32100
H2675       H  0.07780722  0.62053017  0.01760188     0.31100
H2676       H  0.96800386  0.47108599  0.88400836     0.35100
H2677       H  0.92280327  0.57877048  0.89475950     0.27800
H2678       H  0.05609917  0.49287452  0.57063985     0.32100
H2679       H  0.02629525  0.59351475  0.57904986     0.34900
H2680       H  0.09868718  0.52370593  0.89265228     0.27500
H2681       H  0.93642959  0.53634514  0.89000394     0.40400
H2682       H  0.87368531  0.43096961  0.50604035     0.30500
H2683       H  0.95083098  0.38716706  0.95978589     0.38100
H2684       H  0.04776610  0.64511419  0.03631695     0.29900
H2685       H  0.91613493  0.51234711  0.56520558     0.30000
H2686       H  0.09277559  0.47029999  0.55964255     0.30300
Zr2687     Zr  0.95750727  0.55326193  0.75824170     2.17500
O2688       O  0.91971180  0.54712393  0.80514607    -0.52100
O2689       O  0.96029347  0.61886375  0.74345403    -0.75300
O2690       O  0.00100414  0.59363198  0.78513117    -0.82100
O2691       O  0.87755600  0.52338402  0.71018776    -0.83800
O2692       O  0.05280778  0.58948180  0.75401556    -0.79500
O2693       O  0.89101503  0.56749480  0.74532747    -0.91100
O2694       O  0.97534829  0.62074745  0.69364578    -0.77100
O2695       O  0.00419497  0.52509371  0.72564582    -0.86500
O2696       O  0.94815781  0.54624527  0.70615516    -0.86200
O2697       O  0.00803952  0.51612463  0.77973314    -0.73000
O2698       O  0.93764313  0.48852556  0.75684791    -0.85100
Zr2699     Zr  0.03334909  0.45023349  0.69398747     2.26400
Zr2700     Zr  0.06458127  0.52264055  0.74697720     2.06300
Zr2701     Zr  0.93019684  0.47944170  0.70414573     2.10000
Zr2702     Zr  0.00651857  0.55843087  0.67998301     1.78800
O2703       O  0.87823959  0.44506499  0.73035911    -0.93900
O2704       O  0.05474348  0.60514188  0.69256519    -0.41700
O2705       O  0.98693150  0.49283852  0.67318021    -0.78400
O2706       O  0.05638406  0.51547639  0.69481902    -0.97100
O2707       O  0.04678652  0.45834829  0.74537708    -0.90400
O2708       O  0.97711312  0.43940483  0.72489427    -0.93200
C2709       C  0.96240833  0.63618280  0.71829522     1.00500
C2710       C  0.86950446  0.55338133  0.72547604     1.13500
C2711       C  0.03534433  0.60301278  0.77705202     1.04300
O2712       O  0.11680876  0.56348872  0.72827166    -0.95400
O2713       O  0.11595462  0.47663387  0.73646166    -0.91100
O2714       O  0.10267391  0.44775040  0.69296333    -0.84300
C2715       C  0.12542051  0.45614074  0.71356773     1.10900
O2716       O  0.93744990  0.45254458  0.81405638    -0.97300
Zr2717     Zr  0.98927580  0.45018625  0.77559843     1.88900
O2718       O  0.05157447  0.39278708  0.71875578    -0.74000
O2719       O  0.09363551  0.51562064  0.79499783    -0.53200
O2720       O  0.02645947  0.45610224  0.82009120    -0.97900
O2721       O  0.95381078  0.39164405  0.78856081    -0.55100
O2722       O  0.02899699  0.39339342  0.76736643    -0.74500
C2723       C  0.04766144  0.37823863  0.74498566     0.97800
O2724       O  0.05313211  0.43521826  0.64245969    -0.63300
O2725       O  0.89348278  0.48228618  0.65934868    -0.58100
O2726       O  0.99581229  0.39835415  0.67457938    -0.94800
O2727       O  0.93342334  0.41601928  0.68078775    -0.93200
O2728       O  0.97205036  0.56294085  0.63411394    -0.93600
O2729       O  0.04403218  0.55943822  0.63280626    -0.92400
C2730       C  0.95986068  0.39141634  0.67365987     1.16700
H2731       H  0.93060471  0.56395438  0.69742777     0.32600
H2732       H  0.08008899  0.51898664  0.68319750     0.43500
H2733       H  0.96949070  0.41291003  0.72538116     0.37000
H2734       H  0.01217311  0.52324993  0.80019852     0.33500
H2735       H  0.07903892  0.59456262  0.68386949     0.25300
H2736       H  0.09432517  0.48763358  0.79868500     0.31200
H2737       H  0.01352630  0.43961218  0.83549473     0.37100
H2738       H  0.95801407  0.58756603  0.63576391     0.31600
H2739       H  0.86686164  0.47579935  0.66598227     0.30500
H2740       H  0.89083192  0.43015404  0.74603533     0.32100
H2741       H  0.96999322  0.37711551  0.80226328     0.31100
H2742       H  0.06308614  0.53860326  0.63435538     0.35100
H2743       H  0.06227569  0.45988762  0.63376814     0.27800
H2744       H  0.89881614  0.56614610  0.80377470     0.32100
H2745       H  0.94758321  0.44120876  0.83239506     0.34900
H2746       H  0.89264656  0.50976127  0.65371958     0.27500
H2747       H  0.07647910  0.41931253  0.64373260     0.40400
H2748       H  0.14011673  0.55171251  0.73612230     0.30500
H2749       H  0.04974031  0.62777418  0.67987221     0.38100
H2750       H  0.95405090  0.37621256  0.77007236     0.29900
H2751       H  0.12077174  0.52276859  0.79096487     0.30000
H2752       H  0.93632729  0.55769232  0.82038540     0.30300
C2753       C  0.08782728  0.69094657  0.80217315    -0.06200
C2754       C  0.09995695  0.67797395  0.83012774     0.07900
C2755       C  0.10124598  0.63787061  0.83445935    -0.03600
C2756       C  0.07434309  0.61510945  0.82073009    -0.01900
C2757       C  0.05711307  0.62930883  0.79511622    -0.05500
C2758       C  0.06773645  0.66582621  0.78389074     0.01500
C2759       C  0.08756392  0.70114018  0.85707622     0.08400
C2760       C  0.12947660  0.62049759  0.85290798     0.34300
C2761       C  0.05682466  0.67735611  0.75434660     0.37700
C2762       C  0.04753905  0.70103346  0.86084827    -0.05900
C2763       C  0.03044839  0.67004034  0.87645683     0.01300
C2764       C  0.05290307  0.65017510  0.89717028    -0.05500
C2765       C  0.08829298  0.66724506  0.90433310    -0.01700
C2766       C  0.10595878  0.69323624  0.88363144    -0.04200
C2767       C  0.02573308  0.73299579  0.85043440     0.35000
C2768       C  0.10554994  0.65922033  0.93246532     0.38600
C2769       C  0.99325671  0.65685722  0.86819073     0.37800
C2770       C  0.14370408  0.70838991  0.88767300     0.34700
C2771       C  0.09289930  0.73073459  0.79409916     0.35400
C2772       C  0.06314185  0.57865177  0.83407791     0.38600
N2773       N  0.96402937  0.64586158  0.86072313    -0.39500
N2774       N  0.00900609  0.75985942  0.84324939    -0.41000
N2775       N  0.11888303  0.65364309  0.95526131    -0.38800
N2776       N  0.17381639  0.72071447  0.89125185    -0.41200
N2777       N  0.15274810  0.60641014  0.86690153    -0.41000
N2778       N  0.05344966  0.55031805  0.84565529    -0.38600
N2779       N  0.04804111  0.68503711  0.73044136    -0.39600
N2780       N  0.09689740  0.76275659  0.78802635    -0.41300
C2781       C  0.89436316  0.30966918  0.65565589    -0.06200
C2782       C  0.91431498  0.29989112  0.62882099     0.07900
C2783       C  0.95379081  0.29678320  0.63266684    -0.03600
C2784       C  0.97148970  0.32771053  0.64662288    -0.01900
C2785       C  0.94777733  0.35223661  0.66486995    -0.05500
C2786       C  0.91074505  0.33792340  0.67368532     0.01500
C2787       C  0.90727541  0.32490623  0.60189599     0.08400
C2788       C  0.97486183  0.26436975  0.62063911     0.34300
C2789       C  0.89008625  0.35130255  0.70034699     0.37700
C2790       C  0.90132634  0.36459284  0.60662314    -0.05900
C2791       C  0.92648558  0.39066940  0.59238268     0.01300
C2792       C  0.94806983  0.37955566  0.56666487    -0.05500
C2793       C  0.94343237  0.34219789  0.55554832    -0.01700
C2794       C  0.92459420  0.31420242  0.57396876    -0.04200
C2795       C  0.86910201  0.37861560  0.62491724     0.35000
C2796       C  0.95640480  0.33390129  0.52510718     0.38600
C2797       C  0.93052759  0.42915772  0.60368181     0.37800
C2798       C  0.92425432  0.27427453  0.56570190     0.34700
C2799       C  0.85636111  0.29477803  0.66209999     0.35400
C2800       C  0.01191254  0.33436069  0.64085969     0.38600
N2801       N  0.93634093  0.46002690  0.61145163    -0.39500
N2802       N  0.84307761  0.39000575  0.63914298    -0.41000
N2803       N  0.96630262  0.32921095  0.50037894    -0.38800
N2804       N  0.92355333  0.24188892  0.56043624    -0.41200
N2805       N  0.99093000  0.23766238  0.61136219    -0.41000
N2806       N  0.04419437  0.33960012  0.63568898    -0.38600
N2807       N  0.87324997  0.36088960  0.72187661    -0.39600
N2808       N  0.82603185  0.28276641  0.66767454    -0.41300
C2809       C  0.41423976  0.14874084  0.87666765    -0.06200
C2810       C  0.38868272  0.14737968  0.85357981     0.07900
C2811       C  0.37879689  0.11014307  0.84364940    -0.03600
C2812       C  0.40284880  0.07850047  0.84950304    -0.01900
C2813       C  0.43754618  0.08432796  0.86398688    -0.05500
C2814       C  0.44243807  0.12027358  0.87829536     0.01500
C2815       C  0.38806270  0.18233614  0.83313379     0.08400
C2816       C  0.34314338  0.10376697  0.82919857     0.34300
C2817       C  0.47557476  0.12870415  0.89529126     0.37700
C2818       C  0.36864712  0.17809530  0.80676334    -0.05900
C2819       C  0.38860096  0.15952173  0.78275895     0.01300
C2820       C  0.42854948  0.15189766  0.78544318    -0.05500
C2821       C  0.44790019  0.17637837  0.80475557    -0.01700
C2822       C  0.42532312  0.19645200  0.82649125    -0.04200
C2823       C  0.32889941  0.18911595  0.80592538     0.35000
C2824       C  0.48824317  0.18387388  0.80028727     0.38600
C2825       C  0.36876860  0.14981155  0.75622542     0.37800
C2826       C  0.43838412  0.23066901  0.84074345     0.34700
C2827       C  0.41227538  0.18038468  0.89746076     0.35400
C2828       C  0.39108304  0.04022216  0.84160772     0.38600
N2829       N  0.35264404  0.14257128  0.73500851    -0.39500
N2830       N  0.29711195  0.19817143  0.80515156    -0.41000
N2831       N  0.52039884  0.19062025  0.79624362    -0.38800
N2832       N  0.44815447  0.25874831  0.85164823    -0.41200
N2833       N  0.31476081  0.09813265  0.81768692    -0.41000
N2834       N  0.38093762  0.00965036  0.83608219    -0.38600
N2835       N  0.50186771  0.13621901  0.90881732    -0.39600
N2836       N  0.40993779  0.20485114  0.91477062    -0.41300
C2837       C  0.61343249  0.83526971  0.64076733    -0.06200
C2838       C  0.60321229  0.83809303  0.61083976     0.07900
C2839       C  0.56361935  0.83941718  0.60582734    -0.03600
C2840       C  0.53911480  0.85698537  0.62735035    -0.01900
C2841       C  0.55415078  0.86854223  0.65467079    -0.05500
C2842       C  0.58842589  0.85074066  0.66323720    -0.01300
C2843       C  0.62775046  0.86202982  0.58984976     0.08400
C2844       C  0.54915509  0.82873784  0.57720578     0.34300
C2845       C  0.59788018  0.84861224  0.69433612     0.37700
C2846       C  0.63002822  0.90119510  0.59698476    -0.05900
C2847       C  0.61393113  0.92862154  0.57793769     0.01300
C2848       C  0.59841587  0.91671651  0.55095956    -0.05500
C2849       C  0.61023867  0.87989262  0.53999052    -0.01700
C2850       C  0.62701646  0.85335432  0.55955174    -0.04200
C2851       C  0.64825050  0.91241648  0.62389079     0.35000
C2852       C  0.60786478  0.86815849  0.50938486     0.38600
C2853       C  0.61413676  0.96887991  0.58534136     0.37800
C2854       C  0.63982283  0.81569599  0.54984675     0.34700
C2855       C  0.65116066  0.82158882  0.64742018     0.35400
C2856       C  0.49979424  0.86503543  0.62037154     0.38600
N2857       N  0.61447197  0.00137452  0.59023592    -0.39500
N2858       N  0.66360570  0.92078652  0.64523488    -0.41000
N2859       N  0.60863685  0.85440511  0.48590654    -0.38800
N2860       N  0.65076637  0.78591256  0.54201857    -0.41200
N2861       N  0.53702965  0.82041420  0.55452716    -0.41000
N2862       N  0.46850925  0.87173190  0.61478310    -0.38600
N2863       N  0.60529371  0.84580062  0.71918138    -0.39600
N2864       N  0.68131703  0.81054650  0.65276688    -0.41300
loop_ 
_geom_bond_atom_site_label_1 
_geom_bond_atom_site_label_2 
_geom_bond_distance 
_geom_bond_site_symmetry_2 
_ccdc_geom_bond_type 
Zr1           O2   2.439       .  S
Zr1           O3   2.435       .  S
Zr1           O4   2.482       .  S
Zr1           O7   2.435       .  S
Zr1           O9   2.375       .  S
Zr1          O11   2.403       .  S
Zr1          O12   2.407       .  S
Zr1        O1442   2.404       .  S
O2           H58   0.990       .  S
O2           H66   0.990       .  S
O3           C23   1.278       .  A
O4           C25   1.294       .  A
O5          Zr15   2.450       .  S
O5           C24   1.288   1_554  A
O6          Zr14   2.431       .  S
O6           C25   1.283       .  A
O7         C1456   1.287       .  A
O8        Zr1448   2.456       .  S
O8           C23   1.286       .  A
O9          Zr14   2.387       .  S
O9        Zr1448   2.362       .  S
O10         Zr15   2.395   1_556  S
O10         Zr16   2.365   1_556  S
O10       Zr1433   2.409       .  S
O10          H45   0.967       .  S
O11         Zr14   2.397       .  S
O11         Zr31   2.397       .  S
O11          H48   0.966       .  S
O12         Zr31   2.383       .  S
O12       Zr1447   2.405       .  S
Zr13         O38   2.440       .  S
Zr13         O32   2.501       .  S
Zr13         O40   2.526       .  S
Zr13         O28   2.511       .  S
Zr13         O19   2.430       .  S
Zr13         O20   2.431   1_554  S
Zr13         O22   2.395       .  S
Zr13       O1453   2.397   1_554  S
Zr14         O33   2.438       .  S
Zr14         O26   2.437   1_545  S
Zr14         O27   2.408       .  S
Zr14         O21   2.409       .  S
Zr14       O1452   2.403       .  S
Zr15         O17   2.436       .  S
Zr15         O39   2.439       .  S
Zr15         O41   2.472       .  S
Zr15         O19   2.390       .  S
Zr15         O22   2.406       .  S
Zr15       O1444   2.410   1_554  S
Zr16         O42   2.439   1_545  S
Zr16         O43   2.436   1_544  S
Zr16       O1450   2.440       .  S
Zr16       O1440   2.442   1_554  S
Zr16         O19   2.409       .  S
Zr16         O20   2.380   1_554  S
Zr16       O1441   2.377   1_554  S
O17          H54   0.990       .  S
O18       Zr1448   2.439   1_565  S
O18          H63   0.990       .  S
O18        H1481   0.991       .  S
O20       Zr1446   2.403       .  S
O20          H46   0.964   1_545  S
O21         Zr31   2.388       .  S
O21       Zr1445   2.408       .  S
O22       Zr1463   2.382   1_554  S
O22          H47   0.966       .  S
C23         C293   1.473       .  S
C24        O1439   1.291       .  A
C24        C1601   1.483       .  S
C25          C91   1.492       .  S
O26          H62   0.991       .  S
O27          C29   1.280   1_545  A
O28        C1461   1.301   1_544  A
C29        O1460   1.302   1_565  A
C29         C684   1.492       .  S
O30         Zr31   2.443       .  S
O30          H59   0.991       .  S
Zr31         O34   2.434       .  S
Zr31       O1467   2.441       .  S
Zr31       O1468   2.410       .  S
Zr31       O1454   2.386       .  S
O32          C37   1.294       .  A
O33          H50   0.990       .  S
O33          H65   0.990       .  S
O34          H51   0.987       .  S
O35       Zr1463   2.436       .  S
O35          H64   0.990       .  S
O35        H1487   0.990   1_556  S
O36       Zr1463   2.416   1_554  S
O36          C37   1.283       .  A
C37         C947   1.499       .  S
O38          H57   0.990       .  S
O38          H61   0.990       .  S
O39          H53   0.990       .  S
O39          H60   0.990       .  S
O40          C44   1.302       .  A
O41          C44   1.291       .  A
O42          H52   0.990       .  S
O43          H56   0.990       .  S
C44         C110   1.529       .  S
H49        O1450   0.989       .  S
H55        O1467   0.989       .  S
Zr67         O68   2.447       .  S
Zr67         O69   2.497       .  S
Zr67         O70   2.484       .  S
Zr67         O73   2.421       .  S
Zr67         O75   2.381       .  S
Zr67         O76   2.405       .  S
Zr67         O77   2.412       .  S
Zr67         O78   2.435       .  S
O68         H124   0.991       .  S
O68         H132   0.990       .  S
O69          C89   1.294   1_545  A
O70          C91   1.294       .  A
O71         Zr81   2.479       .  S
O71          C90   1.301       .  A
O72         Zr80   2.446       .  S
O72          C91   1.286       .  A
O73          C90   1.273       .  A
O74         Zr82   2.343   1_565  S
O74          C89   1.268       .  A
O75         Zr80   2.410       .  S
O75         Zr82   2.402       .  S
O76         Zr81   2.370       .  S
O76         Zr82   2.379       .  S
O76         H111   0.964       .  S
O77         Zr80   2.393       .  S
O77         Zr97   2.384       .  S
O77         H114   0.964       .  S
O78         Zr81   2.398       .  S
O78         Zr97   2.388       .  S
Zr79        O104   2.442       .  S
Zr79         O98   2.451       .  S
Zr79        O106   2.517       .  S
Zr79         O94   2.473       .  S
Zr79         O85   2.397       .  S
Zr79         O86   2.421       .  S
Zr79         O87   2.393       .  S
Zr79         O88   2.404       .  S
Zr80         O99   2.442       .  S
Zr80         O92   2.435       .  S
Zr80         O93   2.439       .  S
Zr80         O86   2.404       .  S
Zr80         O87   2.394       .  S
Zr81         O83   2.435       .  S
Zr81        O105   2.439       .  S
Zr81        O107   2.485       .  S
Zr81         O85   2.393       .  S
Zr81         O88   2.411       .  S
Zr82        O108   2.434   1_545  S
Zr82        O109   2.437   1_545  S
Zr82         O84   2.439   1_545  S
Zr82         O85   2.380       .  S
Zr82         O86   2.336       .  S
O83         H120   0.990       .  S
O84         H115   0.990       .  S
O84         H129   0.989       .  S
O86         H112   0.962       .  S
O87         Zr97   2.375       .  S
O88         Zr97   2.391       .  S
O88         H113   0.967       .  S
C89         C750   1.458       .  S
C90        C1013   1.478       .  S
O92         H128   0.990       .  S
O93          C95   1.285       .  A
O94          C95   1.294       .  A
C95         C359   1.466       .  S
O96         Zr97   2.440       .  S
O96         H125   0.989       .  S
Zr97        O100   2.436       .  S
Zr97        O101   2.443       .  S
Zr97        O102   2.416       .  S
O98         C103   1.286       .  A
O99         H116   0.990       .  S
O99         H131   0.990       .  S
O100        H117   0.990       .  S
O101        H121   0.990       .  S
O101        H130   0.990       .  S
O102        C103   1.278       .  A
C103        C235   1.465       .  S
O104        H123   0.990       .  S
O104        H127   0.990       .  S
O105        H119   0.990       .  S
O105        H126   0.990       .  S
O106        C110   1.301       .  A
O107        C110   1.294       .  A
O108        H118   0.990       .  S
O109        H122   0.991   1_565  S
Zr133       O134   2.447       .  S
Zr133       O135   2.491       .  S
Zr133       O136   2.506       .  S
Zr133       O139   2.468       .  S
Zr133       O141   2.400       .  S
Zr133       O142   2.412       .  S
Zr133       O143   2.429       .  S
Zr133       O144   2.424       .  S
O134        H190   0.990       .  S
O134        H198   0.990       .  S
O135        C155   1.288       .  A
O136        C157   1.298       .  A
O137       Zr147   2.453       .  S
O137        C156   1.290       .  A
O138       Zr146   2.520       .  S
O138        C157   1.302       .  A
O139        C156   1.288       .  A
O140       Zr148   2.388       .  S
O140        C155   1.269       .  A
O141       Zr146   2.410       .  S
O141       Zr148   2.398       .  S
O142       Zr147   2.392       .  S
O142       Zr148   2.384       .  S
O142        H177   0.966       .  S
O143       Zr146   2.409       .  S
O143       Zr163   2.397       .  S
O143        H180   0.964       .  S
O144       Zr147   2.394       .  S
O144       Zr163   2.405       .  S
Zr145      O1602   2.444       .  S
Zr145       O160   2.424       .  S
Zr145      O1596   2.447       .  S
Zr145      O1604   2.482       .  S
Zr145       O151   2.394       .  S
Zr145       O152   2.422       .  S
Zr145       O153   2.391       .  S
Zr145       O154   2.387       .  S
Zr146       O165   2.435       .  S
Zr146       O158   2.430       .  S
Zr146       O159   2.522       .  S
Zr146       O152   2.414       .  S
Zr146       O153   2.390       .  S
Zr147      O1581   2.436       .  S
Zr147      O1603   2.439       .  S
Zr147      O1605   2.454       .  S
Zr147       O151   2.396       .  S
Zr147       O154   2.405       .  S
Zr148       O174   2.435       .  S
Zr148       O150   2.432       .  S
Zr148      O1607   2.436       .  S
Zr148       O151   2.381       .  S
Zr148       O152   2.371       .  S
O149      Zr1579   2.438       .  S
O149        H186   0.990       .  S
O150        H181   0.990       .  S
O150        H195   0.988       .  S
O152        H178   0.965       .  S
O153       Zr163   2.366       .  S
O154       Zr163   2.386       .  S
O154       H1611   0.965       .  S
C155       C1080   1.474       .  S
C156        C821   1.494       .  S
C157        C242   1.537       .  S
O158        H194   0.990       .  S
O159        C161   1.306       .  A
O160        C161   1.280       .  A
C161        C301   1.493       .  S
O162       Zr163   2.437       .  S
O162        H191   0.990       .  S
Zr163       O166   2.435       .  S
Zr163       O167   2.439       .  S
Zr163       O168   2.428       .  S
O164      Zr1577   2.466       .  S
O164       C1601   1.288   1_554  A
O165        H182   0.990       .  S
O165        H197   0.990       .  S
O166        H183   0.990       .  S
O167        H187   0.990       .  S
O167        H196   0.990       .  S
O168        C169   1.281       .  A
C169       O1596   1.283       .  A
C169       C1456   1.474       .  S
O170      Zr1577   2.445       .  S
O170        H189   0.991       .  S
O170        H193   0.991       .  S
O171      Zr1579   2.443       .  S
O171        H185   0.990       .  S
O171        H192   0.990       .  S
O172      Zr1577   2.484       .  S
O172        C176   1.294       .  A
O173      Zr1579   2.453       .  S
O173        C176   1.285       .  A
O174        H184   0.990       .  S
O175      Zr1580   2.435   1_554  S
O175       H1620   0.990       .  S
C176        C223   1.503       .  S
H179       O1586   0.967   1_554  S
H188       O1607   0.990       .  S
Zr199       O200   2.447       .  S
Zr199       O201   2.504       .  S
Zr199       O202   2.519       .  S
Zr199       O205   2.410       .  S
Zr199       O207   2.368       .  S
Zr199       O208   2.421       .  S
Zr199       O209   2.419       .  S
Zr199       O210   2.429       .  S
O200        H256   0.991       .  S
O200        H264   0.990       .  S
O201        C221   1.294       .  A
O202        C223   1.298       .  A
O203       Zr213   2.471       .  S
O203        C222   1.298       .  A
O204       Zr212   2.427       .  S
O204        C223   1.282       .  A
O205        C222   1.275       .  A
O206       Zr214   2.355       .  S
O206        C221   1.269       .  A
O207       Zr212   2.393       .  S
O207       Zr214   2.401       .  S
O208       Zr213   2.402       .  S
O208       Zr214   2.387       .  S
O208        H243   0.966       .  S
O209       Zr212   2.385       .  S
O209       Zr229   2.404       .  S
O209        H246   0.963       .  S
O210       Zr213   2.380       .  S
O210       Zr229   2.378       .  S
Zr211       O236   2.454       .  S
Zr211       O230   2.466       .  S
Zr211       O238   2.531       .  S
Zr211       O226   2.461       .  S
Zr211       O217   2.393       .  S
Zr211       O218   2.428       .  S
Zr211       O219   2.395       .  S
Zr211       O220   2.395       .  S
Zr212       O231   2.439       .  S
Zr212       O224   2.436       .  S
Zr212       O225   2.392       .  S
Zr212       O218   2.417       .  S
Zr212       O219   2.387       .  S
Zr213       O215   2.438       .  S
Zr213       O237   2.437       .  S
Zr213       O239   2.495       .  S
Zr213       O217   2.385       .  S
Zr213       O220   2.400       .  S
Zr214       O240   2.433       .  S
Zr214       O241   2.437       .  S
Zr214       O216   2.438       .  S
Zr214       O217   2.374       .  S
Zr214       O218   2.367       .  S
O215        H252   0.990       .  S
O216        H247   0.990       .  S
O216        H261   0.990       .  S
O218        H244   0.965       .  S
O219       Zr229   2.369       .  S
O220       Zr229   2.392       .  S
O220        H245   0.966       .  S
C221       C1146   1.468       .  S
C222        C881   1.463       .  S
O224        H260   0.990       .  S
O225        C227   1.278       .  A
O226        C227   1.292       .  A
C227        C367   1.456       .  S
O228       Zr229   2.438       .  S
O228        H257   0.989       .  S
Zr229       O232   2.438       .  S
Zr229       O233   2.436       .  S
Zr229       O234   2.411       .  S
O230        C235   1.287       .  A
O231        H248   0.990       .  S
O231        H263   0.990       .  S
O232        H249   0.990       .  S
O233        H253   0.990       .  S
O233        H262   0.990       .  S
O234        C235   1.276       .  A
O236        H255   0.989       .  S
O236        H259   0.988       .  S
O237        H251   0.990       .  S
O237        H258   0.990       .  S
O238        C242   1.301       .  A
O239        C242   1.298       .  A
O240        H250   0.989       .  S
O241        H254   0.990       .  S
Zr265       O266   2.445       .  S
Zr265       O267   2.480       .  S
Zr265       O268   2.484   1_565  S
Zr265       O271   2.387       .  S
Zr265       O273   2.391       .  S
Zr265       O274   2.384       .  S
Zr265       O275   2.405   1_565  S
Zr265       O276   2.434   1_565  S
O266        H322   0.990       .  S
O266        H330   0.989       .  S
O267        C287   1.288       .  A
O268        C289   1.295       .  A
O269      Zr1711   2.519       .  S
O269        C288   1.299       .  A
O270       Zr278   2.464       .  S
O270        C289   1.293       .  A
O271        C288   1.279       .  A
O272       Zr280   2.425       .  S
O272        C287   1.280       .  A
O273       Zr278   2.413   1_565  S
O273       Zr280   2.386       .  S
O274       Zr280   2.365       .  S
O274      Zr1711   2.361       .  S
O274        H309   0.961       .  S
O275       Zr278   2.437       .  S
O275       Zr295   2.370       .  S
O275        H312   0.938       .  S
O276       Zr295   2.393       .  S
O276      Zr1711   2.408   1_545  S
Zr277       O302   2.451   1_556  S
Zr277       O296   2.543       .  S
Zr277       O304   2.435   1_546  S
Zr277      O1724   2.324       .  S
Zr277      O1716   2.444   1_545  S
Zr277      O1718   2.364   1_556  S
Zr277       O283   2.309   1_545  S
Zr277      O1717   2.258       .  S
Zr278       O297   2.438       .  S
Zr278       O290   2.434   1_545  S
Zr278       O291   2.558       .  S
Zr278       O284   2.364   1_545  S
Zr278       O285   2.365       .  S
Zr279       O281   2.444   1_565  S
Zr279       O303   2.445       .  S
Zr279       O305   2.448       .  S
Zr279      O1701   2.469       .  S
Zr279      O1706   2.364   1_554  S
Zr279      O1708   2.401   1_564  S
Zr279      O1718   2.398   1_565  S
Zr279       O283   2.274   1_554  S
Zr280       O282   2.461       .  S
Zr280      O1738   2.430       .  S
Zr280      O1739   2.441       .  S
Zr280       O284   2.400       .  S
Zr280      O1715   2.303       .  S
O281        H318   0.990       .  S
O282        H313   0.990       .  S
O282        H327   0.990       .  S
O283      Zr1712   2.328       .  S
O284      Zr1709   2.435   1_565  S
O284        H310   0.962       .  S
O285       Zr295   2.371       .  S
O285      Zr1709   2.310       .  S
O286       Zr295   2.371       .  S
O286      Zr1709   2.383       .  S
O286      Zr1711   2.406   1_545  S
O286       H1743   0.964       .  S
C287        C425   1.466       .  S
C288        C557   1.480       .  S
C289       C1381   1.501       .  S
O290        H326   0.990   1_565  S
O291        C293   1.308       .  A
O292      Zr1709   2.335       .  S
O292        C293   1.269       .  A
O294       Zr295   2.436       .  S
O294        H323   0.990       .  S
Zr295       O298   2.439       .  S
Zr295       O299   2.443       .  S
Zr295       O300   2.415       .  S
O296       C1733   1.303       .  A
O297        H314   0.990       .  S
O297        H329   0.989       .  S
O298        H315   0.990       .  S
O299        H319   0.990       .  S
O299        H328   0.990       .  S
O300        C301   1.280       .  A
C301       O1728   1.313       .  A
O302        H321   0.990       .  S
O302        H325   0.990       .  S
O303        H317   0.990       .  S
O303        H324   0.990       .  S
O304        C308   1.288       .  A
O305        C308   1.289       .  A
O306      Zr1712   2.449       .  S
O306        H316   0.991       .  S
O307      Zr1712   2.433       .  S
O307        H320   0.989       .  S
C308       C1416   1.481       .  S
H311       O1718   0.964       .  S
Zr331       O332   2.431       .  S
Zr331       O333   2.319       .  S
Zr331       O334   2.436       .  S
Zr331       O337   2.513       .  S
Zr331       O339   2.381       .  S
Zr331       O340   2.363       .  S
Zr331       O341   2.409   1_565  S
Zr331       O342   2.389   1_565  S
O332        H388   0.989       .  S
O332        H396   0.990       .  S
O333        C353   1.264       .  A
O334        C355   1.286       .  A
O335       Zr345   2.379   1_565  S
O335        C354   1.275       .  A
O336       Zr344   2.423       .  S
O336        C355   1.284       .  A
O337        C354   1.300       .  A
O338       Zr346   2.532       .  S
O338        C353   1.307       .  A
O339       Zr344   2.378       .  S
O339       Zr346   2.340       .  S
O340       Zr345   2.382   1_565  S
O340       Zr346   2.306       .  S
O340        H375   0.958       .  S
O341       Zr344   2.405   1_545  S
O341       Zr361   2.390       .  S
O341        H378   0.966   1_545  S
O342       Zr345   2.389       .  S
O342       Zr361   2.415       .  S
Zr343       O368   2.437       .  S
Zr343       O362   2.387       .  S
Zr343       O370   2.448       .  S
Zr343       O358   2.422       .  S
Zr343       O349   2.401       .  S
Zr343       O350   2.413   1_545  S
Zr343       O351   2.381       .  S
Zr343       O352   2.377       .  S
Zr344       O363   2.430       .  S
Zr344       O356   2.437       .  S
Zr344       O357   2.452   1_565  S
Zr344       O350   2.394       .  S
Zr344       O351   2.357   1_565  S
Zr345       O347   2.437       .  S
Zr345       O369   2.440       .  S
Zr345       O371   2.398       .  S
Zr345       O349   2.408       .  S
Zr345       O352   2.358       .  S
Zr346       O372   2.440       .  S
Zr346       O373   2.436       .  S
Zr346       O348   2.447       .  S
Zr346       O349   2.444   1_565  S
Zr346       O350   2.406       .  S
O347        H384   0.990       .  S
O348        H379   0.990       .  S
O348        H393   0.989       .  S
O350        H376   0.966       .  S
O351       Zr361   2.359       .  S
O352       Zr361   2.353       .  S
O352        H377   0.963       .  S
C353        C491   1.466       .  S
C354        C623   1.460       .  S
C355       C1409   1.493       .  S
O356        H392   0.990       .  S
O357        C359   1.289       .  A
O358        C359   1.283       .  A
O360       Zr361   2.437       .  S
O360        H389   0.990       .  S
Zr361       O364   2.438       .  S
Zr361       O365   2.441       .  S
Zr361       O366   2.445       .  S
O362        C367   1.277       .  A
O363        H380   0.990   1_565  S
O363        H395   0.990       .  S
O364        H381   0.990       .  S
O365        H385   0.990       .  S
O365        H394   0.990       .  S
O366        C367   1.289       .  A
O368        H387   0.990       .  S
O368        H391   0.990       .  S
O369        H383   0.990       .  S
O369        H390   0.990       .  S
O370        C374   1.287       .  A
O371        C374   1.278       .  A
O372        H382   0.990       .  S
O373        H386   0.990       .  S
C374       C1388   1.481       .  S
Zr397       O398   2.450       .  S
Zr397       O399   2.489       .  S
Zr397       O400   2.476       .  S
Zr397       O403   2.432       .  S
Zr397       O405   2.399       .  S
Zr397       O406   2.424       .  S
Zr397       O407   2.436       .  S
Zr397       O408   2.425       .  S
O398        H454   0.990       .  S
O398        H462   0.991       .  S
O399        C419   1.280       .  A
O400        C421   1.290       .  A
O401       Zr411   2.473       .  S
O401        C420   1.297       .  A
O402       Zr410   2.432       .  S
O402        C421   1.285       .  A
O403        C420   1.279       .  A
O404       Zr412   2.391       .  S
O404        C419   1.263       .  A
O405       Zr410   2.390       .  S
O405       Zr412   2.393       .  S
O406       Zr411   2.393       .  S
O406       Zr412   2.396       .  S
O406        H441   0.966       .  S
O407       Zr410   2.393       .  S
O407       Zr427   2.398       .  S
O407        H444   0.962       .  S
O408       Zr411   2.390       .  S
O408       Zr427   2.396       .  S
Zr409       O434   2.441       .  S
Zr409       O428   2.482       .  S
Zr409       O436   2.562       .  S
Zr409       O424   2.500       .  S
Zr409       O415   2.402       .  S
Zr409       O416   2.432       .  S
Zr409       O417   2.395       .  S
Zr409       O418   2.397       .  S
Zr410       O429   2.443       .  S
Zr410       O422   2.435       .  S
Zr410       O423   2.405       .  S
Zr410       O416   2.414       .  S
Zr410       O417   2.386       .  S
Zr411       O413   2.435       .  S
Zr411       O435   2.438       .  S
Zr411       O437   2.482       .  S
Zr411       O415   2.400       .  S
Zr411       O418   2.405       .  S
Zr412       O438   2.425       .  S
Zr412       O439   2.439       .  S
Zr412       O414   2.441       .  S
Zr412       O415   2.394       .  S
Zr412       O416   2.361       .  S
O413        H450   0.990       .  S
O414        H445   0.988       .  S
O414        H459   0.991       .  S
O416        H442   0.964       .  S
O417       Zr427   2.364       .  S
O418       Zr427   2.396       .  S
O418        H443   0.965       .  S
C419        C829   1.484       .  S
C420       C1079   1.478       .  S
C421        C506   1.484       .  S
O422        H458   0.990       .  S
O423        C425   1.277       .  A
O424        C425   1.301       .  A
O426       Zr427   2.443       .  S
O426        H455   0.990       .  S
Zr427       O430   2.439       .  S
Zr427       O431   2.443       .  S
Zr427       O432   2.422       .  S
O428        C433   1.292       .  A
O429        H446   0.990       .  S
O429        H461   0.990       .  S
O430        H447   0.990       .  S
O431        H451   0.989       .  S
O431        H460   0.990       .  S
O432        C433   1.279       .  A
C433        C565   1.478       .  S
O434        H453   0.990       .  S
O434        H457   0.990       .  S
O435        H449   0.989       .  S
O435        H456   0.990       .  S
O436       C1872   1.311       .  A
O437       C1872   1.294       .  A
O438        H448   0.988       .  S
O439        H452   0.990       .  S
C440       O1868   1.315       .  A
C440       O1869   1.294       .  A
C440        C487   1.556       .  S
Zr463       O464   2.438       .  S
Zr463       O465   2.524       .  S
Zr463       O466   2.559       .  S
Zr463       O469   2.490       .  S
Zr463       O471   2.392       .  S
Zr463       O472   2.430       .  S
Zr463       O473   2.432       .  S
Zr463       O474   2.419       .  S
O464        H520   0.990       .  S
O464        H528   0.990       .  S
O465        C485   1.294       .  A
O466        C487   1.311       .  A
O467       Zr477   2.437       .  S
O467        C486   1.289       .  A
O468       Zr476   2.512       .  S
O468        C487   1.299       .  A
O469        C486   1.293       .  A
O470       Zr478   2.363       .  S
O470        C485   1.262       .  A
O471       Zr476   2.404       .  S
O471       Zr478   2.406       .  S
O472       Zr477   2.388       .  S
O472       Zr478   2.392       .  S
O472        H507   0.965       .  S
O473       Zr476   2.397       .  S
O473       Zr493   2.404       .  S
O473        H510   0.962       .  S
O474       Zr477   2.377       .  S
O474       Zr493   2.384       .  S
Zr475       O500   2.446       .  S
Zr475       O494   2.469       .  S
Zr475       O502   2.453       .  S
Zr475       O490   2.408       .  S
Zr475       O481   2.385       .  S
Zr475       O482   2.422       .  S
Zr475       O483   2.386       .  S
Zr475       O484   2.379       .  S
Zr476       O495   2.436       .  S
Zr476       O488   2.414       .  S
Zr476       O489   2.497       .  S
Zr476       O482   2.410       .  S
Zr476       O483   2.388       .  S
Zr477       O479   2.434       .  S
Zr477       O501   2.438       .  S
Zr477       O503   2.454       .  S
Zr477       O481   2.377       .  S
Zr477       O484   2.398       .  S
Zr478       O504   2.435       .  S
Zr478       O505   2.440       .  S
Zr478       O480   2.449       .  S
Zr478       O481   2.373       .  S
Zr478       O482   2.352       .  S
O479        H516   0.990       .  S
O480        H511   0.990       .  S
O480        H525   0.990       .  S
O482        H508   0.960       .  S
O483       Zr493   2.366       .  S
O484       Zr493   2.390       .  S
O484        H509   0.966       .  S
C485        C882   1.485       .  S
C486       C1145   1.477       .  S
O488        H524   0.989       .  S
O489        C491   1.304       .  A
O490        C491   1.276       .  A
O492       Zr493   2.441       .  S
O492        H521   0.990       .  S
Zr493       O496   2.438       .  S
Zr493       O497   2.444       .  S
Zr493       O498   2.428       .  S
O494        C499   1.288       .  A
O495        H512   0.990       .  S
O495        H527   0.989       .  S
O496        H513   0.990       .  S
O497        H517   0.990       .  S
O497        H526   0.990       .  S
O498        C499   1.280       .  A
C499        C631   1.477       .  S
O500        H519   0.991       .  S
O500        H523   0.990       .  S
O501        H515   0.990       .  S
O501        H522   0.990       .  S
O502        C506   1.288       .  A
O503        C506   1.288       .  A
O504        H514   0.990       .  S
O505        H518   0.990       .  S
Zr529       O530   2.443       .  S
Zr529       O531   2.519   1_565  S
Zr529       O532   2.514       .  S
Zr529       O535   2.435       .  S
Zr529       O537   2.376       .  S
Zr529       O539   2.432       .  S
Zr529      O1970   2.406   1_554  S
Zr529      O1972   2.437   1_554  S
O530        H586   0.990       .  S
O530        H594   0.991       .  S
O531        C551   1.295       .  A
O532        C553   1.298       .  A
O533       Zr543   2.468       .  S
O533        C552   1.295       .  A
O534       Zr542   2.456       .  S
O534        C553   1.289       .  A
O535       C1984   1.281   1_554  A
O536      Zr1976   2.346       .  S
O536        C551   1.269   1_556  A
O537       Zr542   2.393       .  S
O537      Zr1976   2.388   1_564  S
O538       Zr543   2.389       .  S
O538       Zr544   2.385   1_565  S
O538      Zr1961   2.399       .  S
O538        H573   0.964       .  S
O539       Zr542   2.399       .  S
O539      Zr1991   2.396   1_554  S
O539        H576   0.962       .  S
O540       Zr543   2.397       .  S
O540       Zr559   2.403       .  S
O540      Zr1961   2.430       .  S
Zr541       O566   2.438       .  S
Zr541       O560   2.468       .  S
Zr541       O568   2.555       .  S
Zr541       O556   2.452       .  S
Zr541       O547   2.389       .  S
Zr541       O548   2.425       .  S
Zr541       O549   2.398       .  S
Zr541       O550   2.391       .  S
Zr542       O561   2.441       .  S
Zr542       O554   2.433       .  S
Zr542       O555   2.433       .  S
Zr542      O1980   2.420   1_554  S
Zr542      O1981   2.392   1_554  S
Zr543       O545   2.436       .  S
Zr543       O567   2.438       .  S
Zr543       O569   2.488       .  S
Zr543       O547   2.394       .  S
Zr543       O550   2.404       .  S
Zr544       O570   2.435       .  S
Zr544       O571   2.435       .  S
Zr544      O1978   2.437       .  S
Zr544      O1968   2.355       .  S
Zr544       O547   2.380   1_545  S
Zr544       O548   2.363   1_545  S
Zr544      O1969   2.401   1_545  S
O545        H582   0.990       .  S
O546      Zr1976   2.443   1_554  S
O546        H591   0.990       .  S
O546       H2009   0.991   1_554  S
O548      Zr1974   2.414       .  S
O548        H574   0.964       .  S
O549       Zr559   2.367       .  S
O549      Zr1974   2.397       .  S
O550       Zr559   2.391       .  S
O550        H575   0.966       .  S
C551        C948   1.476       .  S
C552       O1967   1.280       .  A
C552       C2115   1.482       .  S
C553        C638   1.509       .  S
O554        H590   0.990   1_565  S
O555       C1989   1.284   1_554  A
O556        C557   1.292       .  A
C557       O1987   1.286       .  A
O558      Zr1991   2.438   1_554  S
O558        H587   0.990       .  S
Zr559       O563   2.441       .  S
Zr559      O1990   2.442       .  S
Zr559      O1994   2.438       .  S
Zr559       O564   2.432       .  S
Zr559      O1971   2.388       .  S
O560        C565   1.291       .  A
O561        H578   0.990       .  S
O561        H593   0.990       .  S
O562      Zr1991   2.440   1_554  S
O562        H579   0.989       .  S
O563        H583   0.990       .  S
O563        H592   0.990       .  S
O564        C565   1.281       .  A
O566        H585   0.990       .  S
O566        H589   0.990       .  S
O567        H581   0.990       .  S
O567        H588   0.990       .  S
O568        C572   1.308       .  A
O569        C572   1.296       .  A
O570        H580   0.990       .  S
O571        H584   0.990       .  S
C572        C619   1.551       .  S
H577       O1978   0.990       .  S
Zr595       O596   2.440       .  S
Zr595       O597   2.543   1_565  S
Zr595       O598   2.542       .  S
Zr595       O601   2.494       .  S
Zr595       O603   2.398       .  S
Zr595       O604   2.410       .  S
Zr595       O605   2.436       .  S
Zr595       O606   2.424       .  S
O596        H652   0.991       .  S
O596        H660   0.990       .  S
O597        C617   1.303       .  A
O598        C619   1.307       .  A
O599       Zr609   2.426       .  S
O599        C618   1.286       .  A
O600       Zr608   2.526       .  S
O600        C619   1.303       .  A
O601        C618   1.294       .  A
O602       Zr610   2.352       .  S
O602        C617   1.270       .  A
O603       Zr608   2.417       .  S
O603       Zr610   2.390   1_565  S
O604       Zr609   2.388       .  S
O604       Zr610   2.382   1_565  S
O604        H639   0.965       .  S
O605       Zr608   2.406       .  S
O605       Zr625   2.389       .  S
O605        H642   0.963       .  S
O606       Zr609   2.397       .  S
O606       Zr625   2.390       .  S
Zr607       O632   2.446       .  S
Zr607       O626   2.468       .  S
Zr607       O634   2.488       .  S
Zr607       O622   2.399       .  S
Zr607       O613   2.393       .  S
Zr607       O614   2.432       .  S
Zr607       O615   2.395       .  S
Zr607       O616   2.377       .  S
Zr608       O627   2.437       .  S
Zr608       O620   2.436       .  S
Zr608       O621   2.506       .  S
Zr608       O614   2.410       .  S
Zr608       O615   2.393       .  S
Zr609       O611   2.435       .  S
Zr609       O633   2.438       .  S
Zr609       O635   2.470       .  S
Zr609       O613   2.375       .  S
Zr609       O616   2.401       .  S
Zr610       O636   2.433       .  S
Zr610       O637   2.445       .  S
Zr610       O612   2.440       .  S
Zr610       O613   2.396   1_545  S
Zr610       O614   2.339   1_545  S
O611        H648   0.990       .  S
O612        H643   0.990       .  S
O612        H657   0.990       .  S
O614        H640   0.960       .  S
O615       Zr625   2.370       .  S
O616       Zr625   2.396       .  S
O616        H641   0.966       .  S
C617       C1014   1.488       .  S
C618        C749   1.480       .  S
O620        H656   0.990       .  S
O621        C623   1.306       .  A
O622        C623   1.275       .  A
O624       Zr625   2.434       .  S
O624        H653   0.991       .  S
Zr625       O628   2.437       .  S
Zr625       O629   2.440       .  S
Zr625       O630   2.430       .  S
O626        C631   1.287       .  A
O627        H644   0.990       .  S
O627        H659   0.990       .  S
O628        H645   0.990       .  S
O629        H649   0.990       .  S
O629        H658   0.990       .  S
O630        C631   1.280       .  A
O632        H651   0.991       .  S
O632        H655   0.991       .  S
O633        H647   0.990       .  S
O633        H654   0.990       .  S
O634        C638   1.293       .  A
O635        C638   1.289       .  A
O636        H646   0.990       .  S
O637        H650   0.990       .  S
Zr661       O662   2.447       .  S
Zr661       O663   2.516   1_655  S
Zr661       O664   2.513       .  S
Zr661       O667   2.425       .  S
Zr661       O669   2.374       .  S
Zr661       O671   2.427       .  S
Zr661      O2102   2.404   1_554  S
Zr661      O2104   2.447   1_554  S
O662        H718   0.990       .  S
O662        H726   0.991       .  S
O663        C683   1.296   1_554  A
O664        C685   1.296       .  A
O665       Zr675   2.462       .  S
O665        C684   1.294       .  A
O666       Zr674   2.466       .  S
O666        C685   1.290       .  A
O667       C2116   1.279   1_554  A
O668      Zr2108   2.331   1_455  S
O668        C683   1.266       .  A
O669       Zr674   2.385       .  S
O669      Zr2108   2.406   1_554  S
O670       Zr675   2.395       .  S
O670       Zr676   2.378   1_655  S
O670      Zr2093   2.397       .  S
O670        H705   0.965       .  S
O671       Zr674   2.378       .  S
O671      Zr2123   2.409   1_554  S
O671        H708   0.963       .  S
O672       Zr675   2.402       .  S
O672       Zr691   2.423       .  S
O672      Zr2093   2.442       .  S
Zr673       O698   2.431       .  S
Zr673       O692   2.458       .  S
Zr673       O700   2.499       .  S
Zr673       O688   2.466       .  S
Zr673       O679   2.400       .  S
Zr673       O680   2.423       .  S
Zr673       O681   2.389       .  S
Zr673       O682   2.389       .  S
Zr674       O693   2.437       .  S
Zr674       O686   2.435       .  S
Zr674       O687   2.389       .  S
Zr674      O2112   2.418   1_554  S
Zr674      O2113   2.403   1_554  S
Zr675       O677   2.434       .  S
Zr675       O699   2.452       .  S
Zr675       O701   2.469       .  S
Zr675       O679   2.391       .  S
Zr675       O682   2.413       .  S
Zr676       O702   2.439       .  S
Zr676       O703   2.433       .  S
Zr676       O678   2.440       .  S
Zr676      O2100   2.349       .  S
Zr676       O679   2.379   1_455  S
Zr676       O680   2.352   1_455  S
Zr676      O2101   2.400   1_455  S
O677        H714   0.990       .  S
O678        H709   0.990       .  S
O678       H2155   0.990       .  S
O680      Zr2106   2.417       .  S
O680        H706   0.964       .  S
O681       Zr691   2.358       .  S
O681      Zr2106   2.406       .  S
O682       Zr691   2.385       .  S
O682        H707   0.965       .  S
C683       C1984   1.466       .  S
C684       O2099   1.284       .  A
C685        C770   1.518       .  S
O686        H722   0.990       .  S
O687       C2121   1.278   1_554  A
O688        C689   1.293       .  A
C689       O2119   1.279       .  A
C689       C1225   1.454       .  S
O690      Zr2123   2.439   1_554  S
O690        H719   0.990       .  S
Zr691       O695   2.438       .  S
Zr691      O2122   2.436       .  S
Zr691      O2126   2.436       .  S
Zr691       O696   2.491       .  S
Zr691      O2103   2.414       .  S
O692        C697   1.284       .  A
O693        H710   0.990       .  S
O693        H725   0.990       .  S
O694      Zr2123   2.438   1_554  S
O694        H711   0.990       .  S
O695        H715   0.990       .  S
O695        H724   0.990       .  S
O696        C697   1.293       .  A
C697        C816   1.510       .  S
O698        H717   0.987       .  S
O698        H721   0.990       .  S
O699        H713   0.989       .  S
O699        H720   0.989       .  S
O700        C704   1.296       .  A
O701        C704   1.291       .  A
O702        H712   0.990       .  S
O703        H716   0.990       .  S
C704        C751   1.514       .  S
H723       O2110   0.989       .  S
Zr727       O728   2.444       .  S
Zr727       O729   2.495   1_655  S
Zr727       O730   2.489       .  S
Zr727       O733   2.419       .  S
Zr727       O735   2.388       .  S
Zr727       O736   2.417       .  S
Zr727       O737   2.424       .  S
Zr727       O738   2.422       .  S
O728        H784   0.990       .  S
O728        H792   0.991       .  S
O729        C749   1.288       .  A
O730        C751   1.293       .  A
O731       Zr741   2.457       .  S
O731        C750   1.295       .  A
O732       Zr740   2.488       .  S
O732        C751   1.294       .  A
O733        C750   1.277       .  A
O734       Zr742   2.393       .  S
O734        C749   1.271       .  A
O735       Zr740   2.412       .  S
O735       Zr742   2.407   1_655  S
O736       Zr741   2.408       .  S
O736       Zr742   2.373   1_655  S
O736        H771   0.966       .  S
O737       Zr740   2.393       .  S
O737       Zr757   2.389       .  S
O737        H774   0.962       .  S
O738       Zr741   2.379       .  S
O738       Zr757   2.380       .  S
Zr739       O764   2.446       .  S
Zr739       O758   2.479       .  S
Zr739       O766   2.475       .  S
Zr739       O754   2.441       .  S
Zr739       O745   2.400       .  S
Zr739       O746   2.437       .  S
Zr739       O747   2.390       .  S
Zr739       O748   2.387       .  S
Zr740       O759   2.440       .  S
Zr740       O752   2.423       .  S
Zr740       O753   2.461       .  S
Zr740       O746   2.414       .  S
Zr740       O747   2.380       .  S
Zr741       O743   2.436       .  S
Zr741       O765   2.436       .  S
Zr741       O767   2.495       .  S
Zr741       O745   2.380       .  S
Zr741       O748   2.402       .  S
Zr742       O768   2.437       .  S
Zr742       O769   2.440       .  S
Zr742       O744   2.441       .  S
Zr742       O745   2.386   1_455  S
Zr742       O746   2.364   1_455  S
O743        H780   0.991       .  S
O744        H775   0.991       .  S
O744        H789   0.990       .  S
O746        H772   0.959       .  S
O747       Zr757   2.367       .  S
O748       Zr757   2.394       .  S
O748        H773   0.965       .  S
O752        H788   0.990       .  S
O753        C755   1.297       .  A
O754        C755   1.282       .  A
C755       C1277   1.471       .  S
O756       Zr757   2.437       .  S
O756        H785   0.990       .  S
Zr757       O760   2.440       .  S
Zr757       O761   2.440       .  S
Zr757       O762   2.409       .  S
O758        C763   1.290       .  A
O759        H776   0.990       .  S
O759        H791   0.990       .  S
O760        H777   0.990       .  S
O761        H781   0.991       .  S
O761        H790   0.990       .  S
O762        C763   1.277       .  A
C763        C895   1.470       .  S
O764        H783   0.990       .  S
O764        H787   0.990       .  S
O765        H779   0.990       .  S
O765        H786   0.990       .  S
O766        C770   1.292       .  A
O767        C770   1.296       .  A
O768        H778   0.990       .  S
O769        H782   0.990       .  S
Zr793       O794   2.442       .  S
Zr793       O795   2.451       .  S
Zr793       O799   2.475       .  S
Zr793      O2228   2.547       .  S
Zr793       O801   2.387       .  S
Zr793       O802   2.412       .  S
Zr793       O803   2.407       .  S
Zr793       O804   2.424       .  S
O794       H2282   0.990       .  S
O794       H2290   0.990       .  S
O795        C815   1.285       .  A
O796      Zr2225   2.537   1_554  S
O796        C817   1.301       .  A
O797       Zr807   2.487       .  S
O797        C816   1.295       .  A
O798      Zr2238   2.486   1_554  S
O798        C817   1.294       .  A
O799        C816   1.292       .  A
O800       Zr808   2.353       .  S
O800        C815   1.268       .  A
O801       Zr806   2.388       .  S
O801       Zr808   2.406       .  S
O802       Zr807   2.389       .  S
O802       Zr808   2.385       .  S
O802        H837   0.966       .  S
O803       Zr806   2.387       .  S
O803       Zr823   2.407       .  S
O803        H840   0.965       .  S
O804       Zr807   2.407       .  S
O804       Zr823   2.403       .  S
Zr805       O830   2.440       .  S
Zr805       O824   2.454       .  S
Zr805       O832   2.544       .  S
Zr805       O820   2.521       .  S
Zr805       O811   2.413       .  S
Zr805       O812   2.425       .  S
Zr805       O813   2.412       .  S
Zr805       O814   2.402       .  S
Zr806       O825   2.439       .  S
Zr806       O818   2.438       .  S
Zr806       O819   2.410       .  S
Zr806      O2230   2.503       .  S
Zr806       O812   2.423       .  S
Zr806       O813   2.421       .  S
Zr807       O809   2.435       .  S
Zr807       O831   2.437       .  S
Zr807       O833   2.483       .  S
Zr807       O811   2.409       .  S
Zr807       O814   2.396       .  S
Zr808       O834   2.437       .  S
Zr808       O835   2.437       .  S
Zr808       O810   2.437       .  S
Zr808       O811   2.376       .  S
Zr808       O812   2.359       .  S
O809        H846   0.990       .  S
O810        H841   0.990       .  S
O810        H855   0.990       .  S
O812        H838   0.964       .  S
O813       Zr823   2.366       .  S
O814       Zr823   2.377       .  S
O814        H839   0.966       .  S
C815       C1217   1.432       .  S
C817        C883   1.543       .  S
O818        H854   0.990       .  S
O819        C821   1.283       .  A
O820        C821   1.303       .  A
O822       Zr823   2.435       .  S
O822        H851   0.991       .  S
Zr823       O826   2.438       .  S
Zr823       O827   2.434       .  S
Zr823       O828   2.452       .  S
O824        C829   1.284       .  A
O825       H2274   0.991       .  S
O825       H2289   0.990       .  S
O826        H843   0.990       .  S
O827        H847   0.988       .  S
O827        H856   0.990       .  S
O828        C829   1.288       .  A
O830        H849   0.990       .  S
O830        H853   0.990       .  S
O831        H845   0.990       .  S
O831        H852   0.990       .  S
O832        C836   1.306       .  A
O833        C836   1.295       .  A
O834        H844   0.990       .  S
O835        H848   0.990       .  S
C836        C902   1.539       .  S
H842       O2257   0.990       .  S
H850       O2226   0.990       .  S
H857       O2257   0.990       .  S
H858       O2226   0.990       .  S
Zr859       O860   2.445       .  S
Zr859       O861   2.517       .  S
Zr859       O862   2.502       .  S
Zr859       O865   2.436       .  S
Zr859       O867   2.380       .  S
Zr859       O868   2.402       .  S
Zr859       O869   2.427       .  S
Zr859       O870   2.433       .  S
O860        H916   0.990       .  S
O860        H924   0.991       .  S
O861        C881   1.298       .  A
O862        C883   1.296       .  A
O863       Zr873   2.502       .  S
O863        C882   1.301       .  A
O864       Zr872   2.547       .  S
O864        C883   1.306       .  A
O865        C882   1.279       .  A
O866       Zr874   2.320       .  S
O866        C881   1.263       .  A
O867       Zr872   2.409       .  S
O867       Zr874   2.407       .  S
O868       Zr873   2.394       .  S
O868       Zr874   2.388       .  S
O868        H903   0.964       .  S
O869       Zr872   2.388       .  S
O869       Zr889   2.387       .  S
O869        H906   0.962       .  S
O870       Zr873   2.392       .  S
O870       Zr889   2.399       .  S
Zr871       O896   2.452       .  S
Zr871       O890   2.446       .  S
Zr871       O898   2.504       .  S
Zr871       O886   2.425       .  S
Zr871       O877   2.375       .  S
Zr871       O878   2.428       .  S
Zr871       O879   2.409       .  S
Zr871       O880   2.392       .  S
Zr872       O891   2.436       .  S
Zr872       O884   2.436       .  S
Zr872       O885   2.485       .  S
Zr872       O878   2.431       .  S
Zr872       O879   2.408       .  S
Zr873       O875   2.436       .  S
Zr873       O897   2.435       .  S
Zr873       O899   2.535       .  S
Zr873       O877   2.376       .  S
Zr873       O880   2.412       .  S
Zr874       O900   2.439       .  S
Zr874       O901   2.441       .  S
Zr874       O876   2.441       .  S
Zr874       O877   2.362       .  S
Zr874       O878   2.340       .  S
O875        H912   0.990       .  S
O876        H907   0.990       .  S
O876        H921   0.990       .  S
O878        H904   0.963       .  S
O879       Zr889   2.367       .  S
O880       Zr889   2.396       .  S
O880        H905   0.966       .  S
O884        H920   0.990       .  S
O885        C887   1.301       .  A
O886        C887   1.278       .  A
C887       C1278   1.467       .  S
O888       Zr889   2.435       .  S
O888        H917   0.990       .  S
Zr889       O892   2.438       .  S
Zr889       O893   2.438       .  S
Zr889       O894   2.428       .  S
O890        C895   1.284       .  A
O891        H908   0.990       .  S
O891        H923   0.990       .  S
O892        H909   0.990       .  S
O893        H913   0.990       .  S
O893        H922   0.989       .  S
O894        C895   1.278       .  A
O896        H915   0.989       .  S
O896        H919   0.991       .  S
O897        H911   0.990       .  S
O897        H918   0.990       .  S
O898        C902   1.297       .  A
O899        C902   1.304       .  A
O900        H910   0.990       .  S
O901        H914   0.990       .  S
Zr925       O926   2.442       .  S
Zr925       O927   2.521   1_455  S
Zr925       O928   2.538       .  S
Zr925       O931   2.470       .  S
Zr925       O933   2.400       .  S
Zr925       O935   2.430       .  S
Zr925       O936   2.433       .  S
Zr925      O2366   2.425   1_554  S
O926        H982   0.990       .  S
O926        H990   0.991       .  S
O927        C947   1.287       .  A
O928        C949   1.306       .  A
O929       Zr939   2.461       .  S
O929       C2380   1.292       .  A
O930       Zr938   2.510       .  S
O930        C949   1.298       .  A
O931        C948   1.288       .  A
O932      Zr2372   2.390   1_554  S
O932        C947   1.266       .  A
O933       Zr938   2.411       .  S
O933      Zr2372   2.404   1_454  S
O934       Zr939   2.399       .  S
O934       Zr940   2.373       .  S
O934      Zr2357   2.426       .  S
O934        H969   0.966       .  S
O935       Zr938   2.402       .  S
O935       Zr955   2.390       .  S
O935        H972   0.960       .  S
O936       Zr955   2.382       .  S
O936      Zr2371   2.403   1_554  S
Zr937       O962   2.444       .  S
Zr937       O956   2.508       .  S
Zr937       O964   2.501       .  S
Zr937       O952   2.410       .  S
Zr937       O943   2.404       .  S
Zr937       O944   2.438       .  S
Zr937       O946   2.386       .  S
Zr937      O2377   2.380       .  S
Zr938       O957   2.435       .  S
Zr938       O950   2.427       .  S
Zr938       O951   2.473       .  S
Zr938       O945   2.386       .  S
Zr938      O2376   2.427   1_554  S
Zr939       O941   2.435       .  S
Zr939       O963   2.441       .  S
Zr939       O965   2.503       .  S
Zr939       O943   2.379       .  S
Zr939       O946   2.407       .  S
Zr939      O2368   2.394       .  S
Zr940       O966   2.430   1_455  S
Zr940       O967   2.438   1_455  S
Zr940      O2374   2.426   1_455  S
Zr940      O2364   2.393   1_455  S
Zr940       O943   2.374       .  S
Zr940       O944   2.361       .  S
Zr940      O2365   2.409       .  S
O941        H978   0.990       .  S
O942      Zr2372   2.427       .  S
O942        H973   0.989       .  S
O942        H987   0.987   1_556  S
O944      Zr2370   2.408       .  S
O944        H970   0.962       .  S
O945       Zr955   2.372       .  S
O945      Zr2369   2.387   1_554  S
O946      Zr2387   2.388       .  S
O946        H971   0.965       .  S
C948       O2361   1.289   1_554  A
C949       C1034   1.542       .  S
O950        H986   0.990       .  S
O951        C953   1.296   1_554  A
O952       C2385   1.280       .  A
C953       O2384   1.284       .  A
C953       C2643   1.475       .  S
O954       Zr955   2.437       .  S
O954        H983   0.991       .  S
Zr955       O958   2.442       .  S
Zr955      O2391   2.438   1_554  S
Zr955      O2392   2.414   1_554  S
Zr955      O2378   2.399   1_554  S
O956        C961   1.297       .  A
O957        H974   0.990       .  S
O957        H989   0.990       .  S
O958        H975   0.990       .  S
O959      Zr2387   2.450       .  S
O959        H979   0.990       .  S
O959        H988   0.990       .  S
O960      Zr2387   2.433       .  S
O960        C961   1.281       .  A
C961       C1093   1.489       .  S
O962        H981   0.990       .  S
O962        H985   0.991       .  S
O963        H977   0.990       .  S
O963        H984   0.989       .  S
O964        C968   1.297       .  A
O965        C968   1.297       .  A
O966        H976   0.990       .  S
O967        H980   0.991       .  S
C968       C1015   1.527       .  S
Zr991       O992   2.442       .  S
Zr991       O993   2.562   1_455  S
Zr991       O994   2.535       .  S
Zr991       O997   2.468       .  S
Zr991       O999   2.392       .  S
Zr991      O1000   2.403       .  S
Zr991      O1001   2.443       .  S
Zr991      O1002   2.432       .  S
O992       H1048   0.990       .  S
O992       H1056   0.990       .  S
O993       C1013   1.308       .  A
O994       C1015   1.303       .  A
O995      Zr1005   2.459       .  S
O995       C1014   1.296       .  A
O996      Zr1004   2.479       .  S
O996       C1015   1.294       .  A
O997       C1014   1.286       .  A
O998      Zr1006   2.309   1_655  S
O998       C1013   1.261       .  A
O999      Zr1004   2.401       .  S
O999      Zr1006   2.398       .  S
O1000     Zr1005   2.379       .  S
O1000     Zr1006   2.393       .  S
O1000      H1035   0.964       .  S
O1001     Zr1004   2.398       .  S
O1001     Zr1021   2.398       .  S
O1001      H1038   0.962       .  S
O1002     Zr1005   2.387       .  S
O1002     Zr1021   2.391       .  S
Zr1003     O1028   2.440       .  S
Zr1003     O1022   2.469       .  S
Zr1003     O1030   2.565       .  S
Zr1003     O1018   2.437       .  S
Zr1003     O1009   2.373       .  S
Zr1003     O1010   2.430       .  S
Zr1003     O1011   2.403       .  S
Zr1003     O1012   2.391       .  S
Zr1004     O1023   2.440       .  S
Zr1004     O1016   2.435   1_455  S
Zr1004     O1017   2.452       .  S
Zr1004     O1010   2.411       .  S
Zr1004     O1011   2.403       .  S
Zr1005     O1007   2.434       .  S
Zr1005     O1029   2.438       .  S
Zr1005     O1031   2.477       .  S
Zr1005     O1009   2.375       .  S
Zr1005     O1012   2.406       .  S
Zr1006     O1032   2.437   1_455  S
Zr1006     O1033   2.425   1_455  S
Zr1006     O1008   2.439   1_455  S
Zr1006     O1009   2.365       .  S
Zr1006     O1010   2.348       .  S
O1007      H1044   0.990       .  S
O1008      H1039   0.991       .  S
O1008      H1053   0.990       .  S
O1010      H1036   0.963       .  S
O1011     Zr1021   2.368       .  S
O1012     Zr1021   2.393       .  S
O1012      H1037   0.966       .  S
O1016      H1052   0.990       .  S
O1017      C1019   1.289       .  A
O1018      C1019   1.289       .  A
C1019      C1291   1.466       .  S
O1020     Zr1021   2.439       .  S
O1020      H1049   0.990       .  S
Zr1021     O1024   2.436       .  S
Zr1021     O1025   2.438       .  S
Zr1021     O1026   2.442       .  S
O1022      C1027   1.289       .  A
O1023      H1040   0.990       .  S
O1023      H1055   0.990       .  S
O1024      H1041   0.990       .  S
O1025      H1045   0.990       .  S
O1025      H1054   0.990       .  S
O1026      C1027   1.282       .  A
C1027      C1159   1.485       .  S
O1028      H1047   0.990       .  S
O1028      H1051   0.991       .  S
O1029      H1043   0.990       .  S
O1029      H1050   0.990       .  S
O1030      C1034   1.311       .  A
O1031      C1034   1.293       .  A
O1032      H1042   0.990   1_655  S
O1033      H1046   0.988       .  S
Zr1057     O1058   2.447       .  S
Zr1057     O1059   2.527       .  S
Zr1057     O1060   2.531       .  S
Zr1057     O1063   2.464       .  S
Zr1057     O1065   2.386       .  S
Zr1057     O1066   2.408       .  S
Zr1057     O1067   2.427       .  S
Zr1057     O1068   2.428       .  S
O1058      H1114   0.991       .  S
O1058      H1122   0.990       .  S
O1059      C1079   1.300       .  A
O1060      C1081   1.304       .  A
O1061     Zr1071   2.448       .  S
O1061      C1080   1.289       .  A
O1062     Zr1070   2.495       .  S
O1062      C1081   1.296       .  A
O1063      C1080   1.287       .  A
O1064     Zr1072   2.349       .  S
O1064      C1079   1.266       .  A
O1065     Zr1070   2.412       .  S
O1065     Zr1072   2.394       .  S
O1066     Zr1071   2.395       .  S
O1066     Zr1072   2.384       .  S
O1066      H1101   0.965       .  S
O1067     Zr1070   2.402       .  S
O1067     Zr1087   2.395       .  S
O1067      H1104   0.960       .  S
O1068     Zr1071   2.394       .  S
O1068     Zr1087   2.398       .  S
Zr1069     O2526   2.444       .  S
Zr1069     O1088   2.492       .  S
Zr1069     O1084   2.423       .  S
Zr1069     O2528   2.492       .  S
Zr1069     O1075   2.392       .  S
Zr1069     O1076   2.431       .  S
Zr1069     O1077   2.385       .  S
Zr1069     O1078   2.387       .  S
Zr1070     O1089   2.434       .  S
Zr1070     O1082   2.436       .  S
Zr1070     O1083   2.457       .  S
Zr1070     O1076   2.418       .  S
Zr1070     O1077   2.392       .  S
Zr1071     O1073   2.437       .  S
Zr1071     O2527   2.443       .  S
Zr1071     O2529   2.488       .  S
Zr1071     O1075   2.369       .  S
Zr1071     O1078   2.409       .  S
Zr1072     O1098   2.437       .  S
Zr1072     O1099   2.441       .  S
Zr1072     O1074   2.442       .  S
Zr1072     O1075   2.376       .  S
Zr1072     O1076   2.353       .  S
O1073      H2542   0.990       .  S
O1074      H1105   0.989       .  S
O1074      H1119   0.990       .  S
O1076      H1102   0.962       .  S
O1077     Zr1087   2.364       .  S
O1078     Zr1087   2.400       .  S
O1078      H1103   0.965       .  S
C1081      C1166   1.532       .  S
O1082      H1118   0.990       .  S
O1083      C1085   1.295       .  A
O1084      C1085   1.280       .  A
C1085      C1212   1.457       .  S
O1086     Zr1087   2.440       .  S
O1086      H1115   0.990       .  S
Zr1087     O1090   2.443       .  S
Zr1087     O1091   2.441       .  S
Zr1087     O1092   2.432       .  S
O1088      C1093   1.294       .  A
O1089      H1106   0.990       .  S
O1089      H1121   0.990       .  S
O1090      H1107   0.990       .  S
O1091      H1111   0.990       .  S
O1091      H1120   0.990       .  S
O1092      C1093   1.279       .  A
O1094     Zr2501   2.445   1_554  S
O1094      H1113   0.990       .  S
O1094      H2549   0.990       .  S
O1095     Zr2503   2.438   1_554  S
O1095      H1109   0.990       .  S
O1095      H2548   0.990       .  S
O1096     Zr2501   2.507   1_554  S
O1096      C1100   1.298       .  A
O1097     Zr2503   2.502   1_554  S
O1097      C1100   1.298       .  A
O1098      H1108   0.990       .  S
O1099      H1112   0.989       .  S
C1100      C1147   1.527       .  S
H1110      O2505   0.990       .  S
H1116      O2527   0.990       .  S
H1117      O2526   0.991       .  S
Zr1123     O1124   2.444       .  S
Zr1123     O1125   2.502       .  S
Zr1123     O1126   2.512       .  S
Zr1123     O1129   2.445       .  S
Zr1123     O1131   2.392       .  S
Zr1123     O1132   2.407       .  S
Zr1123     O1133   2.428       .  S
Zr1123     O1134   2.425       .  S
O1124      H1180   0.990       .  S
O1124      H1188   0.991       .  S
O1125      C1145   1.292       .  A
O1126      C1147   1.298       .  A
O1127     Zr1137   2.443       .  S
O1127      C1146   1.290       .  A
O1128     Zr1136   2.491       .  S
O1128      C1147   1.295       .  A
O1129      C1146   1.284       .  A
O1130     Zr1138   2.384       .  S
O1130      C1145   1.275       .  A
O1131     Zr1136   2.407       .  S
O1131     Zr1138   2.396       .  S
O1132     Zr1137   2.392       .  S
O1132     Zr1138   2.377       .  S
O1132      H1167   0.965       .  S
O1133     Zr1136   2.398       .  S
O1133     Zr1153   2.402       .  S
O1133      H1170   0.964       .  S
O1134     Zr1137   2.402       .  S
O1134     Zr1153   2.389       .  S
Zr1135     O1160   2.442       .  S
Zr1135     O1154   2.485       .  S
Zr1135     O1162   2.533       .  S
Zr1135     O1150   2.434       .  S
Zr1135     O1141   2.399       .  S
Zr1135     O1142   2.442       .  S
Zr1135     O1143   2.400       .  S
Zr1135     O1144   2.384       .  S
Zr1136     O1155   2.443       .  S
Zr1136     O1148   2.435       .  S
Zr1136     O1149   2.453       .  S
Zr1136     O1142   2.418       .  S
Zr1136     O1143   2.404       .  S
Zr1137     O1139   2.436       .  S
Zr1137     O1161   2.440       .  S
Zr1137     O1163   2.466       .  S
Zr1137     O1141   2.385       .  S
Zr1137     O1144   2.405       .  S
Zr1138     O1164   2.437       .  S
Zr1138     O1165   2.442       .  S
Zr1138     O1140   2.439       .  S
Zr1138     O1141   2.391       .  S
Zr1138     O1142   2.363       .  S
O1139      H1176   0.990       .  S
O1140      H1171   0.990       .  S
O1140      H1185   0.990       .  S
O1142      H1168   0.963       .  S
O1143     Zr1153   2.369       .  S
O1144     Zr1153   2.388       .  S
O1144      H1169   0.966       .  S
O1148      H1184   0.989       .  S
O1149      C1151   1.288       .  A
O1150      C1151   1.286       .  A
C1151      C1283   1.461       .  S
O1152     Zr1153   2.435       .  S
O1152      H1181   0.990       .  S
Zr1153     O1156   2.435       .  S
Zr1153     O1157   2.439       .  S
Zr1153     O1158   2.422       .  S
O1154      C1159   1.292       .  A
O1155      H1172   0.989       .  S
O1155      H1187   0.990       .  S
O1156      H1173   0.990       .  S
O1157      H1177   0.990       .  S
O1157      H1186   0.990       .  S
O1158      C1159   1.279       .  A
O1160      H1179   0.991       .  S
O1160      H1183   0.990       .  S
O1161      H1175   0.990       .  S
O1161      H1182   0.990       .  S
O1162      C1166   1.304       .  A
O1163      C1166   1.290       .  A
O1164      H1174   0.990       .  S
O1165      H1178   0.990       .  S
Zr1189     O2622   2.436       .  S
Zr1189     O1195   2.469       .  S
Zr1189     O2623   2.341       .  S
Zr1189     O2624   2.470   1_455  S
Zr1189     O1197   2.380   1_455  S
Zr1189     O1198   2.386       .  S
Zr1189     O1200   2.395       .  S
Zr1189     O2631   2.396   1_455  S
O1190     Zr2621   2.435       .  S
O1190      H1246   0.990       .  S
O1190      H1254   0.990       .  S
O1191     Zr2621   2.375       .  S
O1191      C2643   1.275   1_554  A
O1192     Zr2621   2.452       .  S
O1192      C1213   1.289   1_455  A
O1193     Zr1203   2.384       .  S
O1193      C1212   1.277       .  A
O1194     Zr1202   2.370       .  S
O1194      C1213   1.274       .  A
O1195      C1212   1.293       .  A
O1196     Zr1204   2.496   1_455  S
O1196      C1211   1.298       .  A
O1197     Zr1204   2.353       .  S
O1197     Zr2634   2.374       .  S
O1198     Zr1203   2.380       .  S
O1198     Zr1204   2.335   1_455  S
O1198      H1233   0.964       .  S
O1199     Zr1202   2.397       .  S
O1199     Zr2621   2.412   1_655  S
O1199     Zr2651   2.393   1_655  S
O1199      H1236   0.968       .  S
O1200     Zr1203   2.411       .  S
O1200     Zr1219   2.406       .  S
Zr1201     O1226   2.434       .  S
Zr1201     O1220   2.384       .  S
Zr1201     O1228   2.439   1_655  S
Zr1201     O1216   2.412       .  S
Zr1201     O1207   2.402   1_655  S
Zr1201     O1208   2.401       .  S
Zr1201     O1209   2.374       .  S
Zr1201     O1210   2.377   1_655  S
Zr1202     O1221   2.434       .  S
Zr1202     O1214   2.435   1_554  S
Zr1202     O2647   2.412   1_554  S
Zr1202     O2629   2.377   1_554  S
Zr1202     O2640   2.385   1_554  S
Zr1202     O2641   2.353   1_554  S
Zr1203     O1205   2.433       .  S
Zr1203     O1227   2.436       .  S
Zr1203     O1229   2.429       .  S
Zr1203     O1207   2.381       .  S
Zr1203     O1210   2.371       .  S
Zr1204     O1230   2.439   1_655  S
Zr1204     O1231   2.433       .  S
Zr1204     O1206   2.438       .  S
Zr1204     O1207   2.430   1_655  S
Zr1204     O1208   2.410       .  S
O1205      H1242   0.990       .  S
O1206      H1237   0.990       .  S
O1206      H1251   0.989       .  S
O1208     Zr2634   2.381       .  S
O1208      H1234   0.966       .  S
O1209     Zr1219   2.363   1_655  S
O1209     Zr2634   2.360       .  S
O1210     Zr1219   2.347       .  S
O1210      H1235   0.963       .  S
C1211      O2623   1.269       .  A
C1211      C2385   1.457       .  S
C1213      C1360   1.462       .  S
O1214      H1250   0.990       .  S
O1215     Zr2634   2.393       .  S
O1215      C1217   1.275       .  A
O1216      C1217   1.281       .  A
O1218     Zr2651   2.436       .  S
O1218      H1247   0.990       .  S
Zr1219     O1223   2.439       .  S
Zr1219     O2650   2.435       .  S
Zr1219     O2654   2.437   1_455  S
Zr1219     O1224   2.445   1_455  S
Zr1219     O2631   2.386   1_455  S
O1220      C1225   1.276       .  A
O1221      H1238   0.990       .  S
O1221      H1253   0.990       .  S
O1222     Zr2651   2.436   1_655  S
O1222      H1239   0.990       .  S
O1223      H1243   0.990       .  S
O1223      H1252   0.990       .  S
O1224      C1225   1.289       .  A
O1226      H1245   0.990       .  S
O1226      H1249   0.989       .  S
O1227      H1241   0.989       .  S
O1227      H1248   0.990       .  S
O1228      C1232   1.286       .  A
O1229      C1232   1.285       .  A
O1230      H1240   0.990       .  S
O1231      H1244   0.990       .  S
C1232      C1332   1.491       .  S
Zr1255     O1256   2.436       .  S
Zr1255     O1257   2.321       .  S
Zr1255     O1258   2.477   1_655  S
Zr1255     O1261   2.514       .  S
Zr1255     O1263   2.390   1_655  S
Zr1255     O1264   2.379       .  S
Zr1255     O1265   2.413   1_655  S
Zr1255     O1266   2.396       .  S
O1256      H1312   0.990       .  S
O1256      H1320   0.990       .  S
O1257      C1277   1.265       .  A
O1258      C1279   1.294       .  A
O1259     Zr1269   2.382       .  S
O1259      C1278   1.275       .  A
O1260     Zr1268   2.377       .  S
O1260      C1279   1.275       .  A
O1261      C1278   1.301       .  A
O1262     Zr1270   2.525   1_655  S
O1262      C1277   1.301       .  A
O1263     Zr1268   2.388       .  S
O1263     Zr1270   2.353       .  S
O1264     Zr1269   2.386       .  S
O1264     Zr1270   2.316   1_655  S
O1264      H1299   0.962       .  S
O1265     Zr1268   2.411       .  S
O1265     Zr1285   2.389   1_455  S
O1265      H1302   0.966       .  S
O1266     Zr1269   2.399       .  S
O1266     Zr1285   2.410       .  S
Zr1267     O1292   2.436       .  S
Zr1267     O1286   2.406       .  S
Zr1267     O1294   2.432   1_455  S
Zr1267     O1282   2.425       .  S
Zr1267     O1273   2.411   1_455  S
Zr1267     O1274   2.410       .  S
Zr1267     O1275   2.378       .  S
Zr1267     O1276   2.373   1_455  S
Zr1268     O1287   2.435       .  S
Zr1268     O1280   2.438       .  S
Zr1268     O1281   2.430       .  S
Zr1268     O1274   2.377       .  S
Zr1268     O1275   2.356       .  S
Zr1269     O1271   2.434       .  S
Zr1269     O1293   2.435       .  S
Zr1269     O1295   2.416       .  S
Zr1269     O1273   2.399       .  S
Zr1269     O1276   2.366       .  S
Zr1270     O1296   2.436   1_455  S
Zr1270     O1297   2.434       .  S
Zr1270     O1272   2.436       .  S
Zr1270     O1273   2.445   1_455  S
Zr1270     O1274   2.406       .  S
O1271      H1308   0.990       .  S
O1272      H1303   0.990       .  S
O1272      H1317   0.990       .  S
O1274      H1300   0.966       .  S
O1275     Zr1285   2.371   1_455  S
O1276     Zr1285   2.351       .  S
O1276      H1301   0.962       .  S
C1279      C1325   1.473       .  S
O1280      H1316   0.990       .  S
O1281      C1283   1.282       .  A
O1282      C1283   1.281       .  A
O1284     Zr1285   2.434       .  S
O1284      H1313   0.990       .  S
Zr1285     O1288   2.434   1_655  S
Zr1285     O1289   2.442       .  S
Zr1285     O1290   2.442   1_655  S
O1286      C1291   1.282       .  A
O1287      H1304   0.990       .  S
O1287      H1319   0.990       .  S
O1288      H1305   0.990       .  S
O1289      H1309   0.990       .  S
O1289      H1318   0.990       .  S
O1290      C1291   1.286       .  A
O1292      H1311   0.990       .  S
O1292      H1315   0.990       .  S
O1293      H1307   0.990       .  S
O1293      H1314   0.990       .  S
O1294      C1298   1.285       .  A
O1295      C1298   1.281       .  A
O1296      H1306   0.991       .  S
O1297      H1310   0.990       .  S
C1298      C1353   1.489       .  S
C1321      C1322   1.416       .  A
C1321      C1326   1.418       .  A
C1321      C1339   1.446       .  S
C1322      C1327   1.505       .  S
C1322      C1323   1.409       .  A
C1323      C1324   1.399       .  A
C1323      C1328   1.447       .  S
C1324      C1325   1.411       .  A
C1324      C1340   1.450       .  S
C1325      C1326   1.412       .  A
C1326      C1329   1.446       .  S
C1327      C1330   1.399       .  A
C1327      C1334   1.404       .  A
C1328      N1345   1.157       .  T
C1329      N1347   1.156       .  T
C1330      C1331   1.404       .  A
C1330      C1335   1.432       .  S
C1331      C1332   1.418       .  A
C1331      C1337   1.445   1_455  S
C1332      C1333   1.427       .  A
C1333      C1334   1.416       .  A
C1333      C1336   1.448       .  S
C1334      C1338   1.444       .  S
C1335      N1342   1.153   1_455  T
C1336      N1343   1.157       .  T
C1337      N1341   1.157       .  T
C1338      N1344   1.157       .  T
C1339      N1348   1.157       .  T
C1340      N1346   1.157       .  T
C1349      C1350   1.400       .  A
C1349      C1354   1.416       .  A
C1349      C1367   1.444       .  S
C1350      C1355   1.508       .  S
C1350      C1351   1.405       .  A
C1351      C1352   1.406       .  A
C1351      C1356   1.443       .  S
C1352      C1353   1.420       .  A
C1352      C1368   1.446   1_655  S
C1353      C1354   1.430       .  A
C1354      C1357   1.448       .  S
C1355      C1358   1.420       .  A
C1355      C1362   1.408       .  A
C1356      N1373   1.157       .  T
C1357      N1375   1.157       .  T
C1358      C1359   1.399       .  A
C1358      C1363   1.449       .  S
C1359      C1360   1.405       .  A
C1359      C1365   1.453       .  S
C1360      C1361   1.412       .  A
C1361      C1362   1.411       .  A
C1361      C1364   1.446       .  S
C1362      C1366   1.446       .  S
C1363      N1370   1.157       .  T
C1364      N1371   1.156       .  T
C1365      N1369   1.157       .  T
C1366      N1372   1.157       .  T
C1367      N1376   1.157       .  T
C1368      N1374   1.156       .  T
C1377      C1378   1.405       .  A
C1377      C1382   1.407       .  A
C1377      C1395   1.449       .  S
C1378      C1383   1.532       .  S
C1378      C1379   1.428       .  A
C1379      C1380   1.422       .  A
C1379      C1384   1.450       .  S
C1380      C1381   1.413       .  A
C1380      C1396   1.449       .  S
C1381      C1382   1.423       .  A
C1382      C1385   1.447       .  S
C1383      C1386   1.404       .  A
C1383      C1390   1.412       .  A
C1384      N1401   1.158       .  T
C1385      N1403   1.156       .  T
C1386      C1387   1.412       .  A
C1386      C1391   1.443       .  S
C1387      C1388   1.427       .  A
C1387      C1393   1.448       .  S
C1388      C1389   1.418       .  A
C1389      C1390   1.411       .  A
C1389      C1392   1.440       .  S
C1390      C1394   1.444       .  S
C1391      N1398   1.157       .  T
C1392      N1399   1.155       .  T
C1393      N1397   1.157       .  T
C1394      N1400   1.157       .  T
C1395      N1404   1.156       .  T
C1396      N1402   1.157       .  T
C1405      C1406   1.404       .  A
C1405      C1410   1.414       .  A
C1405      C1423   1.446       .  S
C1406      C1411   1.512       .  S
C1406      C1407   1.415       .  A
C1407      C1408   1.404       .  A
C1407      C1412   1.450       .  S
C1408      C1409   1.417       .  A
C1408      C1424   1.450       .  S
C1409      C1410   1.422       .  A
C1410      C1413   1.447       .  S
C1411      C1414   1.401       .  A
C1411      C1418   1.417       .  A
C1412      N1429   1.158       .  T
C1413      N1431   1.157       .  T
C1414      C1415   1.409       .  A
C1414      C1419   1.447       .  S
C1415      C1416   1.424       .  A
C1415      C1421   1.450       .  S
C1416      C1417   1.412       .  A
C1417      C1418   1.412       .  A
C1417      C1420   1.448       .  S
C1418      C1422   1.446       .  S
C1419      N1426   1.157       .  T
C1420      N1427   1.157       .  T
C1421      N1425   1.157   1_554  T
C1422      N1428   1.157       .  T
C1423      N1432   1.157       .  T
C1424      N1430   1.157       .  T
Zr1433     O1434   2.437       .  S
Zr1433     O1435   2.420       .  S
Zr1433     O1436   2.506       .  S
Zr1433     O1439   2.454       .  S
Zr1433     O1441   2.381       .  S
Zr1433     O1443   2.394       .  S
Zr1433     O1444   2.412       .  S
O1434      H1490   0.990       .  S
O1434      H1498   0.990       .  S
O1435      C1455   1.277       .  A
O1436      C1457   1.298       .  A
O1437     Zr1447   2.450       .  S
O1437      C1456   1.287       .  A
O1438     Zr1446   2.442       .  S
O1438      C1457   1.284       .  A
O1440      C1455   1.290       .  A
O1441     Zr1446   2.381       .  S
O1442     Zr1447   2.406       .  S
O1442     Zr1448   2.361       .  S
O1442      H1477   0.966       .  S
O1443     Zr1446   2.388       .  S
O1443     Zr1463   2.395       .  S
O1443      H1480   0.966       .  S
O1444     Zr1463   2.387       .  S
Zr1445     O1470   2.441       .  S
Zr1445     O1464   2.520       .  S
Zr1445     O1472   2.542       .  S
Zr1445     O1460   2.518       .  S
Zr1445     O1451   2.444       .  S
Zr1445     O1452   2.438       .  S
Zr1445     O1454   2.391       .  S
Zr1446     O1465   2.439       .  S
Zr1446     O1458   2.437   1_545  S
Zr1446     O1459   2.381       .  S
Zr1446     O1453   2.411       .  S
Zr1447     O1449   2.435       .  S
Zr1447     O1471   2.439       .  S
Zr1447     O1473   2.467       .  S
Zr1447     O1451   2.406       .  S
Zr1447     O1454   2.400       .  S
Zr1448     O1474   2.435       .  S
Zr1448     O1475   2.440   1_545  S
Zr1448     O1451   2.429       .  S
Zr1448     O1452   2.384       .  S
O1449      H1486   0.990       .  S
O1450      H1495   0.989       .  S
O1452      H1478   0.963       .  S
O1453     Zr1463   2.373       .  S
O1454      H1479   0.965       .  S
C1455      C1725   1.465       .  S
C1457      C1523   1.507       .  S
O1458      H1494   0.990       .  S
O1459      C1461   1.275   1_545  A
C1461      C2116   1.480       .  S
O1462     Zr1463   2.435       .  S
O1462      H1491   0.990       .  S
Zr1463     O1466   2.435       .  S
O1464      C1469   1.297       .  A
O1465      H1482   0.990       .  S
O1465      H1497   0.990       .  S
O1466      H1483   0.989       .  S
O1467      H1496   0.990       .  S
O1468      C1469   1.281       .  A
C1469      C2379   1.508       .  S
O1470      H1489   0.990       .  S
O1470      H1493   0.990   1_545  S
O1471      H1485   0.990       .  S
O1471      H1492   0.990       .  S
O1472      C1476   1.305       .  A
O1473      C1476   1.290       .  A
O1474      H1484   0.989       .  S
O1475      H1488   0.990       .  S
C1476      C1542   1.536       .  S
Zr1499     O1500   2.445       .  S
Zr1499     O1501   2.501   1_545  S
Zr1499     O1502   2.504       .  S
Zr1499     O1505   2.437       .  S
Zr1499     O1507   2.382       .  S
Zr1499     O1508   2.409       .  S
Zr1499     O1509   2.427       .  S
Zr1499     O1510   2.426       .  S
O1500      H1556   0.990       .  S
O1500      H1564   0.991       .  S
O1501      C1521   1.294       .  A
O1502      C1523   1.296       .  A
O1503     Zr1513   2.495       .  S
O1503      C1522   1.303       .  A
O1504     Zr1512   2.465       .  S
O1504      C1523   1.288       .  A
O1505      C1522   1.279       .  A
O1506     Zr1514   2.336   1_565  S
O1506      C1521   1.266       .  A
O1507     Zr1512   2.408       .  S
O1507     Zr1514   2.403       .  S
O1508     Zr1513   2.387       .  S
O1508     Zr1514   2.391       .  S
O1508      H1543   0.966       .  S
O1509     Zr1512   2.388       .  S
O1509     Zr1529   2.393       .  S
O1509      H1546   0.963       .  S
O1510     Zr1513   2.387       .  S
O1510     Zr1529   2.389       .  S
Zr1511     O1536   2.449       .  S
Zr1511     O1530   2.449       .  S
Zr1511     O1538   2.523       .  S
Zr1511     O1526   2.481       .  S
Zr1511     O1517   2.386       .  S
Zr1511     O1518   2.425       .  S
Zr1511     O1519   2.402       .  S
Zr1511     O1520   2.401       .  S
Zr1512     O1531   2.440       .  S
Zr1512     O1524   2.437       .  S
Zr1512     O1525   2.425       .  S
Zr1512     O1518   2.418       .  S
Zr1512     O1519   2.395       .  S
Zr1513     O1515   2.437       .  S
Zr1513     O1537   2.437       .  S
Zr1513     O1539   2.500       .  S
Zr1513     O1517   2.392       .  S
Zr1513     O1520   2.407       .  S
Zr1514     O1540   2.435   1_545  S
Zr1514     O1541   2.439   1_545  S
Zr1514     O1516   2.440   1_545  S
Zr1514     O1517   2.374       .  S
Zr1514     O1518   2.346       .  S
O1515      H1552   0.990       .  S
O1516      H1547   0.990       .  S
O1516      H1561   0.990       .  S
O1518      H1544   0.963       .  S
O1519     Zr1529   2.369       .  S
O1520     Zr1529   2.388       .  S
O1520      H1545   0.966       .  S
C1521      C2182   1.461       .  S
C1522      C2445   1.488       .  S
O1524      H1560   0.990       .  S
O1525      C1527   1.283       .  A
O1526      C1527   1.294       .  A
C1527      C1791   1.466       .  S
O1528     Zr1529   2.437       .  S
O1528      H1557   0.990       .  S
Zr1529     O1532   2.437       .  S
Zr1529     O1533   2.436       .  S
Zr1529     O1534   2.425       .  S
O1530      C1535   1.284       .  A
O1531      H1548   0.990       .  S
O1531      H1563   0.990       .  S
O1532      H1549   0.991       .  S
O1533      H1553   0.990       .  S
O1533      H1562   0.990       .  S
O1534      C1535   1.278       .  A
C1535      C1667   1.468       .  S
O1536      H1555   0.989       .  S
O1536      H1559   0.990       .  S
O1537      H1551   0.990       .  S
O1537      H1558   0.990       .  S
O1538      C1542   1.303       .  A
O1539      C1542   1.297       .  A
O1540      H1550   0.990   1_565  S
O1541      H1554   0.990   1_565  S
Zr1565     O1566   2.445       .  S
Zr1565     O1567   2.489       .  S
Zr1565     O1568   2.503       .  S
Zr1565     O1571   2.486       .  S
Zr1565     O1573   2.407       .  S
Zr1565     O1574   2.404       .  S
Zr1565     O1575   2.433       .  S
Zr1565     O1576   2.419       .  S
O1566      H1622   0.990       .  S
O1566      H1630   0.990       .  S
O1567      C1587   1.286       .  A
O1568      C1589   1.297       .  A
O1569     Zr1579   2.439   1_556  S
O1569      C1588   1.289       .  A
O1570     Zr1578   2.522       .  S
O1570      C1589   1.303       .  A
O1571      C1588   1.292       .  A
O1572     Zr1580   2.384       .  S
O1572      C1587   1.266       .  A
O1573     Zr1578   2.416       .  S
O1573     Zr1580   2.392       .  S
O1574     Zr1579   2.392   1_556  S
O1574     Zr1580   2.383       .  S
O1574      H1609   0.966       .  S
O1575     Zr1578   2.418       .  S
O1575     Zr1595   2.392       .  S
O1575      H1612   0.963       .  S
O1576     Zr1579   2.398   1_556  S
O1576     Zr1595   2.401       .  S
Zr1577     O1592   2.427   1_554  S
Zr1577     O1583   2.394       .  S
Zr1577     O1584   2.423   1_554  S
Zr1577     O1585   2.389   1_554  S
Zr1577     O1586   2.385   1_554  S
Zr1578     O1597   2.435       .  S
Zr1578     O1590   2.431       .  S
Zr1578     O1591   2.520       .  S
Zr1578     O1584   2.418       .  S
Zr1578     O1585   2.387       .  S
Zr1579     O1583   2.393       .  S
Zr1579     O1586   2.411   1_554  S
Zr1580     O1606   2.434   1_556  S
Zr1580     O1582   2.436       .  S
Zr1580     O1583   2.389   1_556  S
Zr1580     O1584   2.374       .  S
O1581      H1618   0.990       .  S
O1582      H1613   0.991       .  S
O1582      H1627   0.989       .  S
O1584      H1610   0.963       .  S
O1585     Zr1595   2.368       .  S
O1586     Zr1595   2.392       .  S
C1587      C2512   1.475       .  S
C1588      C2253   1.499       .  S
C1589      C1674   1.535       .  S
O1590      H1626   0.989       .  S
O1591      C1593   1.305       .  A
O1592      C1593   1.281       .  A
C1593      C1733   1.494       .  S
O1594     Zr1595   2.439       .  S
O1594      H1623   0.990       .  S
Zr1595     O1598   2.436       .  S
Zr1595     O1599   2.438       .  S
Zr1595     O1600   2.437       .  S
O1597      H1614   0.990       .  S
O1597      H1629   0.990       .  S
O1598      H1615   0.990       .  S
O1599      H1619   0.990       .  S
O1599      H1628   0.991       .  S
O1600      C1601   1.283       .  A
O1602      H1621   0.990       .  S
O1602      H1625   0.990       .  S
O1603      H1617   0.990       .  S
O1603      H1624   0.990       .  S
O1604      C1608   1.293       .  A
O1605      C1608   1.288       .  A
O1606      H1616   0.990       .  S
C1608      C1655   1.501       .  S
Zr1631     O1632   2.445       .  S
Zr1631     O1633   2.481       .  S
Zr1631     O1634   2.496       .  S
Zr1631     O1637   2.418       .  S
Zr1631     O1639   2.382       .  S
Zr1631     O1640   2.409       .  S
Zr1631     O1641   2.415       .  S
Zr1631     O1642   2.424       .  S
O1632      H1688   0.990       .  S
O1632      H1696   0.991       .  S
O1633      C1653   1.289       .  A
O1634      C1655   1.294       .  A
O1635     Zr1645   2.452       .  S
O1635      C1654   1.294       .  A
O1636     Zr1644   2.445       .  S
O1636      C1655   1.285       .  A
O1637      C1654   1.276       .  A
O1638     Zr1646   2.360       .  S
O1638      C1653   1.270       .  A
O1639     Zr1644   2.394       .  S
O1639     Zr1646   2.403       .  S
O1640     Zr1645   2.392       .  S
O1640     Zr1646   2.379       .  S
O1640      H1675   0.963       .  S
O1641     Zr1644   2.389       .  S
O1641     Zr1661   2.397       .  S
O1641      H1678   0.961       .  S
O1642     Zr1645   2.394       .  S
O1642     Zr1661   2.381       .  S
Zr1643     O1668   2.445       .  S
Zr1643     O1662   2.459       .  S
Zr1643     O1670   2.523       .  S
Zr1643     O1658   2.446       .  S
Zr1643     O1649   2.391       .  S
Zr1643     O1650   2.433       .  S
Zr1643     O1651   2.394       .  S
Zr1643     O1652   2.392       .  S
Zr1644     O1663   2.439       .  S
Zr1644     O1656   2.436       .  S
Zr1644     O1657   2.397       .  S
Zr1644     O1650   2.412       .  S
Zr1644     O1651   2.386       .  S
Zr1645     O1647   2.440       .  S
Zr1645     O1669   2.440       .  S
Zr1645     O1671   2.498       .  S
Zr1645     O1649   2.381       .  S
Zr1645     O1652   2.405       .  S
Zr1646     O1672   2.435       .  S
Zr1646     O1673   2.436       .  S
Zr1646     O1648   2.442       .  S
Zr1646     O1649   2.375       .  S
Zr1646     O1650   2.372       .  S
O1647      H1684   0.989       .  S
O1648      H1679   0.990       .  S
O1648      H1693   0.990       .  S
O1650      H1676   0.965       .  S
O1651     Zr1661   2.362       .  S
O1652     Zr1661   2.399       .  S
O1652      H1677   0.965       .  S
C1653      C2578   1.455       .  S
C1654      C2313   1.465       .  S
O1656      H1692   0.990       .  S
O1657      C1659   1.279       .  A
O1658      C1659   1.289       .  A
C1659      C1799   1.453       .  S
O1660     Zr1661   2.441       .  S
O1660      H1689   0.989       .  S
Zr1661     O1664   2.437       .  S
Zr1661     O1665   2.440       .  S
Zr1661     O1666   2.416       .  S
O1662      C1667   1.285       .  A
O1663      H1680   0.990       .  S
O1663      H1695   0.990       .  S
O1664      H1681   0.990       .  S
O1665      H1685   0.990       .  S
O1665      H1694   0.990       .  S
O1666      C1667   1.277       .  A
O1668      H1687   0.990       .  S
O1668      H1691   0.988       .  S
O1669      H1683   0.990       .  S
O1669      H1690   0.990       .  S
O1670      C1674   1.300       .  A
O1671      C1674   1.298       .  A
O1672      H1682   0.990       .  S
O1673      H1686   0.990       .  S
Zr1697     O1698   2.439       .  S
Zr1697     O1699   2.479       .  S
Zr1697     O1700   2.445   1_565  S
Zr1697     O1703   2.396       .  S
Zr1697     O1705   2.408       .  S
Zr1697     O1706   2.383       .  S
Zr1697     O1707   2.410   1_565  S
Zr1697     O1708   2.433   1_565  S
O1698      H1754   0.988       .  S
O1698      H1762   0.991       .  S
O1699      C1719   1.287       .  A
O1700      C1721   1.287       .  A
O1701      C1720   1.289   1_554  A
O1702     Zr1710   2.474       .  S
O1702      C1721   1.294       .  A
O1703      C1720   1.278       .  A
O1704     Zr1712   2.433       .  S
O1704      C1719   1.281       .  A
O1705     Zr1710   2.434   1_565  S
O1705     Zr1712   2.370       .  S
O1706     Zr1712   2.391       .  S
O1706      H1741   0.962       .  S
O1707     Zr1710   2.423       .  S
O1707     Zr1727   2.348       .  S
O1707      H1744   0.975       .  S
O1708     Zr1727   2.410       .  S
Zr1709     O1734   2.442       .  S
Zr1709     O1728   2.584       .  S
Zr1709     O1736   2.443   1_545  S
Zr1709     O1715   2.302   1_545  S
Zr1710     O1729   2.448       .  S
Zr1710     O1722   2.450       .  S
Zr1710     O1723   2.558       .  S
Zr1710     O1716   2.372   1_545  S
Zr1710     O1717   2.311       .  S
Zr1711     O1713   2.445   1_565  S
Zr1711     O1735   2.447       .  S
Zr1711     O1737   2.525       .  S
Zr1711     O1715   2.266       .  S
Zr1712     O1714   2.453       .  S
Zr1712     O1716   2.379       .  S
O1713      H1750   0.991       .  S
O1714      H1745   0.991       .  S
O1714      H1759   0.991       .  S
O1716      H1742   0.962       .  S
O1717     Zr1727   2.301       .  S
O1718     Zr1727   2.371   1_554  S
C1719      C1857   1.472       .  S
C1720      C1989   1.462       .  S
C1721      C2813   1.494       .  S
O1722      H1758   0.991       .  S
O1723      C1725   1.306       .  A
O1724      C1725   1.269       .  A
O1726     Zr1727   2.449       .  S
O1726      H1755   0.991       .  S
Zr1727     O1730   2.442       .  S
Zr1727     O1731   2.449   1_556  S
Zr1727     O1732   2.416       .  S
O1729      H1746   0.989       .  S
O1729      H1761   0.990       .  S
O1730      H1747   0.991       .  S
O1731      H1751   0.990       .  S
O1731      H1760   0.990       .  S
O1732      C1733   1.277       .  A
O1734      H1753   0.990       .  S
O1734      H1757   0.990       .  S
O1735      H1749   0.989       .  S
O1735      H1756   0.991       .  S
O1736      C1740   1.289       .  A
O1737      C1740   1.304       .  A
O1738      H1748   0.990       .  S
O1739      H1752   0.989       .  S
C1740      C2848   1.504       .  S
Zr1763     O1764   2.433       .  S
Zr1763     O1765   2.341       .  S
Zr1763     O1766   2.410       .  S
Zr1763     O1769   2.484       .  S
Zr1763     O1771   2.349       .  S
Zr1763     O1772   2.369       .  S
Zr1763     O1773   2.413   1_565  S
Zr1763     O1774   2.355   1_565  S
O1764      H1820   0.990       .  S
O1764      H1828   0.990       .  S
O1765      C1785   1.265       .  A
O1766      C1787   1.279       .  A
O1767     Zr1777   2.377   1_565  S
O1767      C1786   1.274       .  A
O1768     Zr1776   2.419       .  S
O1768      C1787   1.277       .  A
O1769      C1786   1.293       .  A
O1770     Zr1778   2.525       .  S
O1770      C1785   1.302       .  A
O1771     Zr1776   2.350       .  S
O1771     Zr1778   2.331       .  S
O1772     Zr1777   2.408   1_565  S
O1772     Zr1778   2.322       .  S
O1772      H1807   0.963       .  S
O1773     Zr1776   2.423   1_545  S
O1773     Zr1793   2.417       .  S
O1773      H1810   0.965   1_545  S
O1774     Zr1777   2.407       .  S
O1774     Zr1793   2.425       .  S
Zr1775     O1800   2.436       .  S
Zr1775     O1794   2.390       .  S
Zr1775     O1802   2.478       .  S
Zr1775     O1790   2.431       .  S
Zr1775     O1781   2.416       .  S
Zr1775     O1782   2.441   1_545  S
Zr1775     O1783   2.400       .  S
Zr1775     O1784   2.376       .  S
Zr1776     O1795   2.412       .  S
Zr1776     O1788   2.441       .  S
Zr1776     O1789   2.446   1_565  S
Zr1776     O1782   2.386       .  S
Zr1776     O1783   2.343   1_565  S
Zr1777     O1779   2.435       .  S
Zr1777     O1801   2.433       .  S
Zr1777     O1803   2.390       .  S
Zr1777     O1781   2.408       .  S
Zr1777     O1784   2.373       .  S
Zr1778     O1804   2.435       .  S
Zr1778     O1805   2.436       .  S
Zr1778     O1780   2.439       .  S
Zr1778     O1781   2.421   1_565  S
Zr1778     O1782   2.415       .  S
O1779      H1816   0.990       .  S
O1780      H1811   0.990       .  S
O1780      H1825   0.989       .  S
O1782      H1808   0.966       .  S
O1783     Zr1793   2.377       .  S
O1784     Zr1793   2.364       .  S
O1784      H1809   0.965       .  S
C1785      C1923   1.472       .  S
C1786      C2055   1.454       .  S
C1787      C2841   1.490       .  S
O1788      H1824   0.989       .  S
O1789      C1791   1.286       .  A
O1790      C1791   1.284       .  A
O1792     Zr1793   2.439       .  S
O1792      H1821   0.990       .  S
Zr1793     O1796   2.435       .  S
Zr1793     O1797   2.440       .  S
Zr1793     O1798   2.437       .  S
O1794      C1799   1.277       .  A
O1795      H1812   0.987       .  S
O1795      H1827   0.989   1_565  S
O1796      H1813   0.990       .  S
O1797      H1817   0.988       .  S
O1797      H1826   0.990       .  S
O1798      C1799   1.287       .  A
O1800      H1819   0.990       .  S
O1800      H1823   0.990       .  S
O1801      H1815   0.990       .  S
O1801      H1822   0.990       .  S
O1802      C1806   1.294       .  A
O1803      C1806   1.277       .  A
O1804      H1814   0.990       .  S
O1805      H1818   0.990       .  S
C1806      C2820   1.494       .  S
Zr1829     O1830   2.443       .  S
Zr1829     O1831   2.478       .  S
Zr1829     O1832   2.516       .  S
Zr1829     O1835   2.456       .  S
Zr1829     O1837   2.398       .  S
Zr1829     O1838   2.436       .  S
Zr1829     O1839   2.424       .  S
Zr1829     O1840   2.417       .  S
O1830      H1886   0.991       .  S
O1830      H1894   0.991       .  S
O1831      C1851   1.280       .  A
O1832      C1853   1.297       .  A
O1833     Zr1843   2.477       .  S
O1833      C1852   1.298       .  A
O1834     Zr1842   2.441       .  S
O1834      C1853   1.286       .  A
O1835      C1852   1.285       .  A
O1836     Zr1844   2.384       .  S
O1836      C1851   1.265       .  A
O1837     Zr1842   2.394       .  S
O1837     Zr1844   2.406       .  S
O1838     Zr1843   2.399       .  S
O1838     Zr1844   2.390       .  S
O1838      H1873   0.966       .  S
O1839     Zr1842   2.398       .  S
O1839     Zr1859   2.403       .  S
O1839      H1876   0.964       .  S
O1840     Zr1843   2.382       .  S
O1840     Zr1859   2.378       .  S
Zr1841     O1866   2.439   1_556  S
Zr1841     O1860   2.474       .  S
Zr1841     O1868   2.577   1_556  S
Zr1841     O1856   2.504       .  S
Zr1841     O1847   2.398       .  S
Zr1841     O1848   2.430       .  S
Zr1841     O1849   2.393       .  S
Zr1841     O1850   2.397       .  S
Zr1842     O1861   2.438       .  S
Zr1842     O1854   2.435       .  S
Zr1842     O1855   2.421       .  S
Zr1842     O1848   2.418       .  S
Zr1842     O1849   2.391       .  S
Zr1843     O1845   2.436   1_556  S
Zr1843     O1867   2.438   1_556  S
Zr1843     O1869   2.478   1_556  S
Zr1843     O1847   2.398       .  S
Zr1843     O1850   2.403       .  S
Zr1844     O1870   2.428       .  S
Zr1844     O1871   2.439       .  S
Zr1844     O1846   2.438       .  S
Zr1844     O1847   2.380       .  S
Zr1844     O1848   2.356       .  S
O1845      H1882   0.990   1_554  S
O1846      H1877   0.988       .  S
O1846      H1891   0.990       .  S
O1848      H1874   0.962       .  S
O1849     Zr1859   2.372       .  S
O1850     Zr1859   2.389       .  S
O1850      H1875   0.965       .  S
C1851      C2261   1.477       .  S
C1852      C2511   1.489       .  S
C1853      C1938   1.507       .  S
O1854      H1890   0.990       .  S
O1855      C1857   1.281       .  A
O1856      C1857   1.300       .  A
O1858     Zr1859   2.437       .  S
O1858      H1887   0.990       .  S
Zr1859     O1862   2.440       .  S
Zr1859     O1863   2.440       .  S
Zr1859     O1864   2.406       .  S
O1860      C1865   1.292       .  A
O1861      H1878   0.990       .  S
O1861      H1893   0.990       .  S
O1862      H1879   0.990       .  S
O1863      H1883   0.990       .  S
O1863      H1892   0.990       .  S
O1864      C1865   1.277       .  A
C1865      C1997   1.466       .  S
O1866      H1885   0.991       .  S
O1866      H1889   0.990       .  S
O1867      H1881   0.990   1_554  S
O1867      H1888   0.989       .  S
O1870      H1880   0.990       .  S
O1871      H1884   0.990       .  S
C1872      C1919   1.553       .  S
Zr1895     O1896   2.440       .  S
Zr1895     O1897   2.526       .  S
Zr1895     O1898   2.556       .  S
Zr1895     O1901   2.482       .  S
Zr1895     O1903   2.389       .  S
Zr1895     O1904   2.432       .  S
Zr1895     O1905   2.431       .  S
Zr1895     O1906   2.421       .  S
O1896      H1952   0.990       .  S
O1896      H1960   0.990       .  S
O1897      C1917   1.294       .  A
O1898      C1919   1.310       .  A
O1899     Zr1909   2.439       .  S
O1899      C1918   1.288       .  A
O1900     Zr1908   2.520       .  S
O1900      C1919   1.301       .  A
O1901      C1918   1.292       .  A
O1902     Zr1910   2.358       .  S
O1902      C1917   1.260       .  A
O1903     Zr1908   2.399       .  S
O1903     Zr1910   2.401       .  S
O1904     Zr1909   2.403       .  S
O1904     Zr1910   2.393       .  S
O1904      H1939   0.966       .  S
O1905     Zr1908   2.394       .  S
O1905     Zr1925   2.382       .  S
O1905      H1942   0.963       .  S
O1906     Zr1909   2.394       .  S
O1906     Zr1925   2.381       .  S
Zr1907     O1932   2.444       .  S
Zr1907     O1926   2.462       .  S
Zr1907     O1934   2.489       .  S
Zr1907     O1922   2.415       .  S
Zr1907     O1913   2.378       .  S
Zr1907     O1914   2.432       .  S
Zr1907     O1915   2.396       .  S
Zr1907     O1916   2.385       .  S
Zr1908     O1927   2.438       .  S
Zr1908     O1920   2.422       .  S
Zr1908     O1921   2.502       .  S
Zr1908     O1914   2.405       .  S
Zr1908     O1915   2.395       .  S
Zr1909     O1911   2.436       .  S
Zr1909     O1933   2.440       .  S
Zr1909     O1935   2.479       .  S
Zr1909     O1913   2.371       .  S
Zr1909     O1916   2.403       .  S
Zr1910     O1936   2.435       .  S
Zr1910     O1937   2.442       .  S
Zr1910     O1912   2.444       .  S
Zr1910     O1913   2.371       .  S
Zr1910     O1914   2.357       .  S
O1911      H1948   0.990       .  S
O1912      H1943   0.990       .  S
O1912      H1957   0.990       .  S
O1914      H1940   0.962       .  S
O1915     Zr1925   2.376       .  S
O1916     Zr1925   2.394       .  S
O1916      H1941   0.966       .  S
C1917      C2314   1.484       .  S
C1918      C2577   1.475       .  S
O1920      H1956   0.989       .  S
O1921      C1923   1.304       .  A
O1922      C1923   1.279       .  A
O1924     Zr1925   2.439       .  S
O1924      H1953   0.990       .  S
Zr1925     O1928   2.435       .  S
Zr1925     O1929   2.437       .  S
Zr1925     O1930   2.414       .  S
O1926      C1931   1.287       .  A
O1927      H1944   0.990       .  S
O1927      H1959   0.990       .  S
O1928      H1945   0.990       .  S
O1929      H1949   0.990       .  S
O1929      H1958   0.990       .  S
O1930      C1931   1.278       .  A
C1931      C2063   1.471       .  S
O1932      H1951   0.991       .  S
O1932      H1955   0.991       .  S
O1933      H1947   0.989       .  S
O1933      H1954   0.990       .  S
O1934      C1938   1.295       .  A
O1935      C1938   1.292       .  A
O1936      H1946   0.990       .  S
O1937      H1950   0.990       .  S
Zr1961     O1962   2.445       .  S
Zr1961     O1963   2.504   1_565  S
Zr1961     O1964   2.494       .  S
Zr1961     O1967   2.444       .  S
Zr1961     O1969   2.394       .  S
Zr1961     O1971   2.425       .  S
O1962      H2018   0.991       .  S
O1962      H2026   0.990       .  S
O1963      C1983   1.294       .  A
O1964      C1985   1.293       .  A
O1965     Zr1975   2.441       .  S
O1965      C1984   1.290       .  A
O1966     Zr1974   2.464       .  S
O1966      C1985   1.291       .  A
O1968      C1983   1.269       .  A
O1969     Zr1974   2.411       .  S
O1970     Zr1975   2.395       .  S
O1970     Zr1976   2.387   1_565  S
O1970      H2005   0.965       .  S
O1971     Zr1974   2.395       .  S
O1971      H2008   0.963       .  S
O1972     Zr1975   2.396       .  S
O1972     Zr1991   2.401       .  S
Zr1973     O1998   2.437       .  S
Zr1973     O1992   2.455       .  S
Zr1973     O2000   2.540       .  S
Zr1973     O1988   2.445       .  S
Zr1973     O1979   2.381       .  S
Zr1973     O1980   2.430       .  S
Zr1973     O1981   2.391       .  S
Zr1973     O1982   2.390       .  S
Zr1974     O1993   2.440       .  S
Zr1974     O1986   2.436   1_565  S
Zr1974     O1987   2.453       .  S
Zr1975     O1977   2.437       .  S
Zr1975     O1999   2.438       .  S
Zr1975     O2001   2.471       .  S
Zr1975     O1979   2.387       .  S
Zr1975     O1982   2.400       .  S
Zr1976     O2002   2.437       .  S
Zr1976     O2003   2.436       .  S
Zr1976     O1979   2.382   1_545  S
Zr1976     O1980   2.358   1_545  S
O1977      H2014   0.990       .  S
O1978      H2023   0.990       .  S
O1980      H2006   0.964       .  S
O1981     Zr1991   2.361       .  S
O1982     Zr1991   2.394       .  S
O1982      H2007   0.966       .  S
C1983      C2380   1.463       .  S
C1985      C2070   1.506       .  S
O1986      H2022   0.990       .  S
O1988      C1989   1.291       .  A
O1990      H2019   0.990       .  S
Zr1991     O1995   2.439       .  S
Zr1991     O1996   2.421       .  S
O1992      C1997   1.287       .  A
O1993      H2010   0.990       .  S
O1993      H2025   0.990       .  S
O1994      H2011   0.990       .  S
O1995      H2015   0.990       .  S
O1995      H2024   0.990       .  S
O1996      C1997   1.279       .  A
O1998      H2017   0.990       .  S
O1998      H2021   0.990       .  S
O1999      H2013   0.990       .  S
O1999      H2020   0.990       .  S
O2000      C2004   1.305       .  A
O2001      C2004   1.292       .  A
O2002      H2012   0.990       .  S
O2003      H2016   0.990       .  S
C2004      C2051   1.538       .  S
Zr2027     O2028   2.441       .  S
Zr2027     O2029   2.518   1_565  S
Zr2027     O2030   2.531       .  S
Zr2027     O2033   2.448       .  S
Zr2027     O2035   2.394       .  S
Zr2027     O2036   2.412       .  S
Zr2027     O2037   2.430       .  S
Zr2027     O2038   2.432       .  S
O2028      H2084   0.990       .  S
O2028      H2092   0.990       .  S
O2029      C2049   1.297       .  A
O2030      C2051   1.304       .  A
O2031     Zr2041   2.447       .  S
O2031      C2050   1.283       .  A
O2032     Zr2040   2.512       .  S
O2032      C2051   1.299       .  A
O2033      C2050   1.283       .  A
O2034     Zr2042   2.357       .  S
O2034      C2049   1.270       .  A
O2035     Zr2040   2.410       .  S
O2035     Zr2042   2.401   1_565  S
O2036     Zr2041   2.392       .  S
O2036     Zr2042   2.368   1_565  S
O2036      H2071   0.966       .  S
O2037     Zr2040   2.400       .  S
O2037     Zr2057   2.388       .  S
O2037      H2074   0.963       .  S
O2038     Zr2041   2.403       .  S
O2038     Zr2057   2.390       .  S
Zr2039     O2064   2.445       .  S
Zr2039     O2058   2.457       .  S
Zr2039     O2066   2.460       .  S
Zr2039     O2054   2.407       .  S
Zr2039     O2045   2.385       .  S
Zr2039     O2046   2.431       .  S
Zr2039     O2047   2.391       .  S
Zr2039     O2048   2.383       .  S
Zr2040     O2059   2.441       .  S
Zr2040     O2052   2.435   1_565  S
Zr2040     O2053   2.478       .  S
Zr2040     O2046   2.414       .  S
Zr2040     O2047   2.400       .  S
Zr2041     O2043   2.437       .  S
Zr2041     O2065   2.437       .  S
Zr2041     O2067   2.497       .  S
Zr2041     O2045   2.355       .  S
Zr2041     O2048   2.411       .  S
Zr2042     O2068   2.437       .  S
Zr2042     O2069   2.440       .  S
Zr2042     O2044   2.437       .  S
Zr2042     O2045   2.369   1_545  S
Zr2042     O2046   2.344   1_545  S
O2043      H2080   0.990       .  S
O2044      H2075   0.990       .  S
O2044      H2089   0.990       .  S
O2046      H2072   0.962       .  S
O2047     Zr2057   2.373       .  S
O2048     Zr2057   2.394       .  S
O2048      H2073   0.966       .  S
C2049      C2446   1.480       .  S
C2050      C2181   1.461       .  S
O2052      H2088   0.990   1_545  S
O2053      C2055   1.300       .  A
O2054      C2055   1.276       .  A
O2056     Zr2057   2.439       .  S
O2056      H2085   0.989       .  S
Zr2057     O2060   2.440       .  S
Zr2057     O2061   2.437       .  S
Zr2057     O2062   2.422       .  S
O2058      C2063   1.285       .  A
O2059      H2076   0.989       .  S
O2059      H2091   0.990       .  S
O2060      H2077   0.990       .  S
O2061      H2081   0.989       .  S
O2061      H2090   0.990       .  S
O2062      C2063   1.278       .  A
O2064      H2083   0.990       .  S
O2064      H2087   0.991       .  S
O2065      H2079   0.990       .  S
O2065      H2086   0.990       .  S
O2066      C2070   1.289       .  A
O2067      C2070   1.296       .  A
O2068      H2078   0.990       .  S
O2069      H2082   0.991       .  S
Zr2093     O2094   2.443       .  S
Zr2093     O2095   2.536   1_655  S
Zr2093     O2096   2.522       .  S
Zr2093     O2099   2.452       .  S
Zr2093     O2101   2.382       .  S
Zr2093     O2103   2.428       .  S
O2094      H2150   0.991       .  S
O2094      H2158   0.990       .  S
O2095      C2115   1.302       .  A
O2096      C2117   1.300       .  A
O2097     Zr2107   2.467       .  S
O2097      C2116   1.295       .  A
O2098     Zr2106   2.453       .  S
O2098      C2117   1.287       .  A
O2100      C2115   1.268       .  A
O2101     Zr2106   2.397       .  S
O2102     Zr2107   2.391       .  S
O2102     Zr2108   2.383       .  S
O2102      H2137   0.966       .  S
O2103     Zr2106   2.386       .  S
O2103      H2140   0.964       .  S
O2104     Zr2107   2.400       .  S
O2104     Zr2123   2.424       .  S
Zr2105     O2130   2.437       .  S
Zr2105     O2124   2.443       .  S
Zr2105     O2132   2.508       .  S
Zr2105     O2120   2.464       .  S
Zr2105     O2111   2.383       .  S
Zr2105     O2112   2.425       .  S
Zr2105     O2113   2.394       .  S
Zr2105     O2114   2.398       .  S
Zr2106     O2125   2.442       .  S
Zr2106     O2118   2.434       .  S
Zr2106     O2119   2.394       .  S
Zr2107     O2109   2.435       .  S
Zr2107     O2131   2.443       .  S
Zr2107     O2133   2.487       .  S
Zr2107     O2111   2.379       .  S
Zr2107     O2114   2.408       .  S
Zr2108     O2134   2.438   1_655  S
Zr2108     O2135   2.442   1_655  S
Zr2108     O2110   2.444   1_655  S
Zr2108     O2111   2.355       .  S
Zr2108     O2112   2.351       .  S
O2109      H2146   0.990       .  S
O2110      H2141   0.990       .  S
O2112      H2138   0.964       .  S
O2113     Zr2123   2.359       .  S
O2114     Zr2123   2.384       .  S
O2114      H2139   0.966       .  S
C2117      C2202   1.520       .  S
O2118      H2154   0.990       .  S
O2120      C2121   1.292       .  A
C2121      C2657   1.453       .  S
O2122      H2151   0.990       .  S
Zr2123     O2127   2.439       .  S
Zr2123     O2128   2.478       .  S
O2124      C2129   1.282       .  A
O2125      H2142   0.990       .  S
O2125      H2157   0.990       .  S
O2126      H2143   0.990       .  S
O2127      H2147   0.990       .  S
O2127      H2156   0.990       .  S
O2128      C2129   1.291       .  A
C2129      C2248   1.494       .  S
O2130      H2149   0.990       .  S
O2130      H2153   0.990       .  S
O2131      H2145   0.990       .  S
O2131      H2152   0.990       .  S
O2132      C2136   1.298       .  A
O2133      C2136   1.296       .  A
O2134      H2144   0.990       .  S
O2135      H2148   0.990       .  S
C2136      C2183   1.524       .  S
Zr2159     O2160   2.446       .  S
Zr2159     O2161   2.484   1_655  S
Zr2159     O2162   2.490       .  S
Zr2159     O2165   2.431       .  S
Zr2159     O2167   2.381       .  S
Zr2159     O2168   2.412       .  S
Zr2159     O2169   2.419       .  S
Zr2159     O2170   2.422       .  S
O2160      H2216   0.990       .  S
O2160      H2224   0.991       .  S
O2161      C2181   1.289       .  A
O2162      C2183   1.294       .  A
O2163     Zr2173   2.456       .  S
O2163      C2182   1.295       .  A
O2164     Zr2172   2.509       .  S
O2164      C2183   1.299       .  A
O2165      C2182   1.278       .  A
O2166     Zr2174   2.368       .  S
O2166      C2181   1.270       .  A
O2167     Zr2172   2.410       .  S
O2167     Zr2174   2.407   1_655  S
O2168     Zr2173   2.398       .  S
O2168     Zr2174   2.371   1_655  S
O2168      H2203   0.965       .  S
O2169     Zr2172   2.389       .  S
O2169     Zr2189   2.390       .  S
O2169      H2206   0.962       .  S
O2170     Zr2173   2.382       .  S
O2170     Zr2189   2.373       .  S
Zr2171     O2196   2.442       .  S
Zr2171     O2190   2.483       .  S
Zr2171     O2198   2.503       .  S
Zr2171     O2186   2.477       .  S
Zr2171     O2177   2.399       .  S
Zr2171     O2178   2.425       .  S
Zr2171     O2179   2.394       .  S
Zr2171     O2180   2.396       .  S
Zr2172     O2191   2.437       .  S
Zr2172     O2184   2.426       .  S
Zr2172     O2185   2.453       .  S
Zr2172     O2178   2.419       .  S
Zr2172     O2179   2.399       .  S
Zr2173     O2175   2.437       .  S
Zr2173     O2197   2.439       .  S
Zr2173     O2199   2.480       .  S
Zr2173     O2177   2.388       .  S
Zr2173     O2180   2.410       .  S
Zr2174     O2200   2.438       .  S
Zr2174     O2201   2.436       .  S
Zr2174     O2176   2.423       .  S
Zr2174     O2177   2.379   1_455  S
Zr2174     O2178   2.361   1_455  S
O2175      H2212   0.989       .  S
O2176      H2207   0.989       .  S
O2176      H2221   0.988       .  S
O2178      H2204   0.962       .  S
O2179     Zr2189   2.375       .  S
O2180     Zr2189   2.391       .  S
O2180      H2205   0.966       .  S
O2184      H2220   0.990       .  S
O2185      C2187   1.292       .  A
O2186      C2187   1.292       .  A
C2187      C2709   1.482       .  S
O2188     Zr2189   2.438       .  S
O2188      H2217   0.990       .  S
Zr2189     O2192   2.438       .  S
Zr2189     O2193   2.439       .  S
Zr2189     O2194   2.398       .  S
O2190      C2195   1.291       .  A
O2191      H2208   0.990       .  S
O2191      H2223   0.990       .  S
O2192      H2209   0.990       .  S
O2193      H2213   0.990       .  S
O2193      H2222   0.990       .  S
O2194      C2195   1.275       .  A
C2195      C2327   1.472       .  S
O2196      H2215   0.990       .  S
O2196      H2219   0.990       .  S
O2197      H2211   0.990       .  S
O2197      H2218   0.990       .  S
O2198      C2202   1.299       .  A
O2199      C2202   1.292       .  A
O2200      H2210   0.990       .  S
O2201      H2214   0.990       .  S
Zr2225     O2226   2.443   1_556  S
Zr2225     O2227   2.471       .  S
Zr2225     O2231   2.457       .  S
Zr2225     O2233   2.374       .  S
Zr2225     O2234   2.407       .  S
Zr2225     O2235   2.411   1_556  S
Zr2225     O2236   2.426       .  S
O2227      C2247   1.289       .  A
O2228      C2249   1.303       .  A
O2229     Zr2239   2.478       .  S
O2229      C2248   1.294       .  A
O2230      C2249   1.295       .  A
O2231      C2248   1.289       .  A
O2232     Zr2240   2.371       .  S
O2232      C2247   1.270       .  A
O2233     Zr2238   2.398       .  S
O2233     Zr2240   2.400       .  S
O2234     Zr2239   2.396       .  S
O2234     Zr2240   2.375       .  S
O2234      H2269   0.965       .  S
O2235     Zr2238   2.398   1_554  S
O2235     Zr2255   2.417   1_554  S
O2235      H2272   0.966       .  S
O2236     Zr2239   2.413       .  S
O2236     Zr2255   2.398       .  S
Zr2237     O2262   2.439       .  S
Zr2237     O2256   2.450       .  S
Zr2237     O2264   2.532       .  S
Zr2237     O2252   2.519       .  S
Zr2237     O2243   2.411       .  S
Zr2237     O2244   2.419       .  S
Zr2237     O2245   2.412       .  S
Zr2237     O2246   2.405       .  S
Zr2238     O2257   2.438   1_556  S
Zr2238     O2250   2.434   1_556  S
Zr2238     O2251   2.421       .  S
Zr2238     O2244   2.418       .  S
Zr2238     O2245   2.419       .  S
Zr2239     O2241   2.437       .  S
Zr2239     O2263   2.439       .  S
Zr2239     O2265   2.502       .  S
Zr2239     O2243   2.401       .  S
Zr2239     O2246   2.392       .  S
Zr2240     O2266   2.436       .  S
Zr2240     O2267   2.436       .  S
Zr2240     O2242   2.436       .  S
Zr2240     O2243   2.384       .  S
Zr2240     O2244   2.361       .  S
O2241      H2278   0.990       .  S
O2242      H2273   0.990       .  S
O2242      H2287   0.990       .  S
O2244      H2270   0.963       .  S
O2245     Zr2255   2.369       .  S
O2246     Zr2255   2.383       .  S
O2246      H2271   0.966       .  S
C2247      C2649   1.452       .  S
C2249      C2315   1.554       .  S
O2250      H2286   0.990   1_554  S
O2251      C2253   1.286       .  A
O2252      C2253   1.302       .  A
O2254     Zr2255   2.440   1_554  S
O2254      H2283   0.991       .  S
Zr2255     O2258   2.438   1_556  S
Zr2255     O2259   2.442       .  S
Zr2255     O2260   2.438       .  S
O2256      C2261   1.284       .  A
O2258      H2275   0.990       .  S
O2259      H2279   0.989       .  S
O2259      H2288   0.990       .  S
O2260      C2261   1.285       .  A
O2262      H2281   0.990       .  S
O2262      H2285   0.990       .  S
O2263      H2277   0.990       .  S
O2263      H2284   0.990       .  S
O2264      C2268   1.303       .  A
O2265      C2268   1.300       .  A
O2266      H2276   0.991       .  S
O2267      H2280   0.990       .  S
C2268      C2334   1.545       .  S
Zr2291     O2292   2.445       .  S
Zr2291     O2293   2.518       .  S
Zr2291     O2294   2.534       .  S
Zr2291     O2297   2.433       .  S
Zr2291     O2299   2.380       .  S
Zr2291     O2300   2.413       .  S
Zr2291     O2301   2.429       .  S
Zr2291     O2302   2.437       .  S
O2292      H2348   0.990       .  S
O2292      H2356   0.991       .  S
O2293      C2313   1.298       .  A
O2294      C2315   1.301       .  A
O2295     Zr2305   2.500       .  S
O2295      C2314   1.301       .  A
O2296     Zr2304   2.547       .  S
O2296      C2315   1.306       .  A
O2297      C2314   1.280       .  A
O2298     Zr2306   2.321       .  S
O2298      C2313   1.263       .  A
O2299     Zr2304   2.399       .  S
O2299     Zr2306   2.404       .  S
O2300     Zr2305   2.394       .  S
O2300     Zr2306   2.393       .  S
O2300      H2335   0.965       .  S
O2301     Zr2304   2.399       .  S
O2301     Zr2321   2.393       .  S
O2301      H2338   0.960       .  S
O2302     Zr2305   2.400       .  S
O2302     Zr2321   2.400       .  S
Zr2303     O2328   2.447       .  S
Zr2303     O2322   2.448       .  S
Zr2303     O2330   2.500       .  S
Zr2303     O2318   2.427       .  S
Zr2303     O2309   2.384       .  S
Zr2303     O2310   2.428       .  S
Zr2303     O2311   2.413       .  S
Zr2303     O2312   2.384       .  S
Zr2304     O2323   2.437       .  S
Zr2304     O2316   2.435       .  S
Zr2304     O2317   2.471       .  S
Zr2304     O2310   2.428       .  S
Zr2304     O2311   2.416       .  S
Zr2305     O2307   2.436       .  S
Zr2305     O2329   2.437       .  S
Zr2305     O2331   2.542       .  S
Zr2305     O2309   2.380       .  S
Zr2305     O2312   2.407       .  S
Zr2306     O2332   2.436       .  S
Zr2306     O2333   2.438       .  S
Zr2306     O2308   2.440       .  S
Zr2306     O2309   2.370       .  S
Zr2306     O2310   2.339       .  S
O2307      H2344   0.990       .  S
O2308      H2339   0.990       .  S
O2308      H2353   0.990       .  S
O2310      H2336   0.962       .  S
O2311     Zr2321   2.369       .  S
O2312     Zr2321   2.394       .  S
O2312      H2337   0.965       .  S
O2316      H2352   0.990       .  S
O2317      C2319   1.297       .  A
O2318      C2319   1.281       .  A
C2319      C2710   1.463       .  S
O2320     Zr2321   2.438       .  S
O2320      H2349   0.990       .  S
Zr2321     O2324   2.438       .  S
Zr2321     O2325   2.443       .  S
Zr2321     O2326   2.436       .  S
O2322      C2327   1.284       .  A
O2323      H2340   0.990       .  S
O2323      H2355   0.990       .  S
O2324      H2341   0.990       .  S
O2325      H2345   0.989       .  S
O2325      H2354   0.990       .  S
O2326      C2327   1.280       .  A
O2328      H2347   0.990       .  S
O2328      H2351   0.990       .  S
O2329      H2343   0.990       .  S
O2329      H2350   0.990       .  S
O2330      C2334   1.296       .  A
O2331      C2334   1.306       .  A
O2332      H2342   0.990       .  S
O2333      H2346   0.991       .  S
Zr2357     O2358   2.445       .  S
Zr2357     O2359   2.532   1_455  S
Zr2357     O2360   2.516       .  S
Zr2357     O2363   2.431       .  S
Zr2357     O2365   2.392       .  S
Zr2357     O2367   2.435       .  S
Zr2357     O2368   2.439       .  S
O2358      H2414   0.989       .  S
O2358      H2422   0.990       .  S
O2359      C2379   1.289       .  A
O2360      C2381   1.301       .  A
O2361     Zr2371   2.435       .  S
O2362     Zr2370   2.494       .  S
O2362      C2381   1.295       .  A
O2363      C2380   1.281       .  A
O2364      C2379   1.268       .  A
O2365     Zr2370   2.402       .  S
O2366     Zr2371   2.404       .  S
O2366     Zr2372   2.376   1_455  S
O2366      H2401   0.964       .  S
O2367     Zr2370   2.400       .  S
O2367     Zr2387   2.413       .  S
O2367      H2404   0.964       .  S
O2368     Zr2387   2.395       .  S
Zr2369     O2394   2.443       .  S
Zr2369     O2388   2.506       .  S
Zr2369     O2396   2.511       .  S
Zr2369     O2384   2.439       .  S
Zr2369     O2375   2.393       .  S
Zr2369     O2376   2.435       .  S
Zr2369     O2378   2.391       .  S
Zr2370     O2389   2.439       .  S
Zr2370     O2382   2.424       .  S
Zr2370     O2383   2.474       .  S
Zr2370     O2377   2.380       .  S
Zr2371     O2373   2.437       .  S
Zr2371     O2395   2.447       .  S
Zr2371     O2397   2.499       .  S
Zr2371     O2375   2.374       .  S
Zr2371     O2378   2.409       .  S
Zr2372     O2398   2.437       .  S
Zr2372     O2399   2.443       .  S
Zr2372     O2375   2.378   1_655  S
Zr2372     O2376   2.378   1_655  S
O2373      H2410   0.990       .  S
O2374      H2405   0.988       .  S
O2374      H2419   0.984       .  S
O2376      H2402   0.963       .  S
O2377     Zr2387   2.361       .  S
O2378      H2403   0.966       .  S
C2381      C2466   1.531       .  S
O2382      H2418   0.990       .  S
O2383      C2385   1.297       .  A
O2386     Zr2387   2.436       .  S
O2386      H2415   0.990       .  S
Zr2387     O2390   2.435       .  S
O2388      C2393   1.297       .  A
O2389      H2406   0.990       .  S
O2389      H2421   0.990       .  S
O2390      H2407   0.991       .  S
O2391      H2411   0.990       .  S
O2391      H2420   0.990       .  S
O2392      C2393   1.278       .  A
C2393      C2525   1.485       .  S
O2394      H2413   0.991       .  S
O2394      H2417   0.990       .  S
O2395      H2409   0.989       .  S
O2395      H2416   0.990       .  S
O2396      C2400   1.300       .  A
O2397      C2400   1.294       .  A
O2398      H2408   0.991       .  S
O2399      H2412   0.990       .  S
C2400      C2447   1.533       .  S
Zr2423     O2424   2.442       .  S
Zr2423     O2425   2.570   1_455  S
Zr2423     O2426   2.559       .  S
Zr2423     O2429   2.457       .  S
Zr2423     O2431   2.387       .  S
Zr2423     O2432   2.415       .  S
Zr2423     O2433   2.440       .  S
Zr2423     O2434   2.439       .  S
O2424      H2480   0.990       .  S
O2424      H2488   0.991       .  S
O2425      C2445   1.309       .  A
O2426      C2447   1.307       .  A
O2427     Zr2437   2.462       .  S
O2427      C2446   1.295       .  A
O2428     Zr2436   2.461       .  S
O2428      C2447   1.288       .  A
O2429      C2446   1.284       .  A
O2430     Zr2438   2.325   1_655  S
O2430      C2445   1.263       .  A
O2431     Zr2436   2.409       .  S
O2431     Zr2438   2.404       .  S
O2432     Zr2437   2.387       .  S
O2432     Zr2438   2.393       .  S
O2432      H2467   0.966       .  S
O2433     Zr2436   2.396       .  S
O2433     Zr2453   2.413       .  S
O2433      H2470   0.963       .  S
O2434     Zr2437   2.377       .  S
O2434     Zr2453   2.400       .  S
Zr2435     O2460   2.442       .  S
Zr2435     O2454   2.466       .  S
Zr2435     O2462   2.540       .  S
Zr2435     O2450   2.433       .  S
Zr2435     O2441   2.384       .  S
Zr2435     O2442   2.429       .  S
Zr2435     O2443   2.394       .  S
Zr2435     O2444   2.385       .  S
Zr2436     O2455   2.446       .  S
Zr2436     O2448   2.434       .  S
Zr2436     O2449   2.426       .  S
Zr2436     O2442   2.419       .  S
Zr2436     O2443   2.400       .  S
Zr2437     O2439   2.435       .  S
Zr2437     O2461   2.439       .  S
Zr2437     O2463   2.470       .  S
Zr2437     O2441   2.377       .  S
Zr2437     O2444   2.401       .  S
Zr2438     O2464   2.436   1_455  S
Zr2438     O2465   2.438   1_455  S
Zr2438     O2440   2.441   1_455  S
Zr2438     O2441   2.368       .  S
Zr2438     O2442   2.332       .  S
O2439      H2476   0.990       .  S
O2440      H2471   0.990       .  S
O2440      H2485   0.990       .  S
O2442      H2468   0.962       .  S
O2443     Zr2453   2.360       .  S
O2444     Zr2453   2.391       .  S
O2444      H2469   0.966       .  S
O2448      H2484   0.990       .  S
O2449      C2451   1.284       .  A
O2450      C2451   1.288       .  A
C2451      C2723   1.449       .  S
O2452     Zr2453   2.439       .  S
O2452      H2481   0.990       .  S
Zr2453     O2456   2.436       .  S
Zr2453     O2457   2.447       .  S
Zr2453     O2458   2.455       .  S
O2454      C2459   1.289       .  A
O2455      H2472   0.990       .  S
O2455      H2487   0.989       .  S
O2456      H2473   0.990       .  S
O2457      H2477   0.990       .  S
O2457      H2486   0.990       .  S
O2458      C2459   1.286       .  A
C2459      C2591   1.486       .  S
O2460      H2479   0.990       .  S
O2460      H2483   0.990       .  S
O2461      H2475   0.990       .  S
O2461      H2482   0.990       .  S
O2462      C2466   1.306       .  A
O2463      C2466   1.293       .  A
O2464      H2474   0.990       .  S
O2465      H2478   0.989       .  S
Zr2489     O2490   2.443       .  S
Zr2489     O2491   2.539       .  S
Zr2489     O2492   2.521       .  S
Zr2489     O2495   2.446       .  S
Zr2489     O2497   2.380       .  S
Zr2489     O2498   2.401       .  S
Zr2489     O2499   2.428       .  S
Zr2489     O2500   2.435       .  S
O2490      H2546   0.990       .  S
O2490      H2554   0.991       .  S
O2491      C2511   1.303       .  A
O2492      C2513   1.301       .  A
O2493     Zr2503   2.464       .  S
O2493      C2512   1.292       .  A
O2494     Zr2502   2.498       .  S
O2494      C2513   1.297       .  A
O2495      C2512   1.283       .  A
O2496     Zr2504   2.365       .  S
O2496      C2511   1.272       .  A
O2497     Zr2502   2.412       .  S
O2497     Zr2504   2.402       .  S
O2498     Zr2503   2.396       .  S
O2498     Zr2504   2.388       .  S
O2498      H2533   0.965       .  S
O2499     Zr2502   2.404       .  S
O2499     Zr2519   2.396       .  S
O2499      H2536   0.961       .  S
O2500     Zr2503   2.392       .  S
O2500     Zr2519   2.403       .  S
Zr2501     O2520   2.482       .  S
Zr2501     O2516   2.424       .  S
Zr2501     O2507   2.393   1_556  S
Zr2501     O2508   2.429       .  S
Zr2501     O2509   2.394       .  S
Zr2501     O2510   2.387       .  S
Zr2502     O2521   2.440       .  S
Zr2502     O2514   2.435       .  S
Zr2502     O2515   2.478       .  S
Zr2502     O2508   2.409       .  S
Zr2502     O2509   2.396       .  S
Zr2503     O2505   2.437   1_556  S
Zr2503     O2507   2.385   1_556  S
Zr2503     O2510   2.409       .  S
Zr2504     O2530   2.436   1_556  S
Zr2504     O2531   2.444   1_556  S
Zr2504     O2506   2.443       .  S
Zr2504     O2507   2.383   1_556  S
Zr2504     O2508   2.353       .  S
O2506      H2537   0.990       .  S
O2506      H2551   0.990       .  S
O2508      H2534   0.961       .  S
O2509     Zr2519   2.365       .  S
O2510     Zr2519   2.397       .  S
O2510      H2535   0.966   1_556  S
C2513      C2598   1.530       .  S
O2514      H2550   0.990       .  S
O2515      C2517   1.298       .  A
O2516      C2517   1.282       .  A
C2517      C2644   1.466       .  S
O2518     Zr2519   2.436       .  S
O2518      H2547   0.990       .  S
Zr2519     O2522   2.441       .  S
Zr2519     O2523   2.444       .  S
Zr2519     O2524   2.435       .  S
O2520      C2525   1.291       .  A
O2521      H2538   0.990       .  S
O2521      H2553   0.990       .  S
O2522      H2539   0.990       .  S
O2523      H2543   0.990       .  S
O2523      H2552   0.990       .  S
O2524      C2525   1.278       .  A
O2526      H2545   0.990       .  S
O2527      H2541   0.990       .  S
O2528      C2532   1.295       .  A
O2529      C2532   1.294       .  A
O2530      H2540   0.990       .  S
O2531      H2544   0.990       .  S
C2532      C2579   1.514       .  S
Zr2555     O2556   2.443       .  S
Zr2555     O2557   2.488       .  S
Zr2555     O2558   2.507       .  S
Zr2555     O2561   2.422       .  S
Zr2555     O2563   2.382       .  S
Zr2555     O2564   2.416       .  S
Zr2555     O2565   2.423       .  S
Zr2555     O2566   2.431       .  S
O2556      H2612   0.991       .  S
O2556      H2620   0.990       .  S
O2557      C2577   1.288       .  A
O2558      C2579   1.298       .  A
O2559     Zr2569   2.451       .  S
O2559      C2578   1.289       .  A
O2560     Zr2568   2.471       .  S
O2560      C2579   1.292       .  A
O2561      C2578   1.280       .  A
O2562     Zr2570   2.398       .  S
O2562      C2577   1.275       .  A
O2563     Zr2568   2.399       .  S
O2563     Zr2570   2.393       .  S
O2564     Zr2569   2.395       .  S
O2564     Zr2570   2.372       .  S
O2564      H2599   0.965       .  S
O2565     Zr2568   2.396       .  S
O2565     Zr2585   2.396       .  S
O2565      H2602   0.964       .  S
O2566     Zr2569   2.395       .  S
O2566     Zr2585   2.389       .  S
Zr2567     O2592   2.440       .  S
Zr2567     O2586   2.496       .  S
Zr2567     O2594   2.513       .  S
Zr2567     O2582   2.449       .  S
Zr2567     O2573   2.405       .  S
Zr2567     O2574   2.432       .  S
Zr2567     O2575   2.391       .  S
Zr2567     O2576   2.393       .  S
Zr2568     O2587   2.440       .  S
Zr2568     O2580   2.435       .  S
Zr2568     O2581   2.443       .  S
Zr2568     O2574   2.418       .  S
Zr2568     O2575   2.400       .  S
Zr2569     O2571   2.434       .  S
Zr2569     O2593   2.439       .  S
Zr2569     O2595   2.483       .  S
Zr2569     O2573   2.382       .  S
Zr2569     O2576   2.403       .  S
Zr2570     O2596   2.435       .  S
Zr2570     O2597   2.437       .  S
Zr2570     O2572   2.436       .  S
Zr2570     O2573   2.389       .  S
Zr2570     O2574   2.372       .  S
O2571      H2608   0.990       .  S
O2572      H2603   0.990       .  S
O2572      H2617   0.990       .  S
O2574      H2600   0.963       .  S
O2575     Zr2585   2.369       .  S
O2576     Zr2585   2.392       .  S
O2576      H2601   0.965       .  S
O2580      H2616   0.990       .  S
O2581      C2583   1.287       .  A
O2582      C2583   1.288       .  A
C2583      C2715   1.466       .  S
O2584     Zr2585   2.436       .  S
O2584      H2613   0.990       .  S
Zr2585     O2588   2.437       .  S
Zr2585     O2589   2.440       .  S
Zr2585     O2590   2.417       .  S
O2586      C2591   1.295       .  A
O2587      H2604   0.990       .  S
O2587      H2619   0.990       .  S
O2588      H2605   0.991       .  S
O2589      H2609   0.990       .  S
O2589      H2618   0.989       .  S
O2590      C2591   1.278       .  A
O2592      H2611   0.991       .  S
O2592      H2615   0.990       .  S
O2593      H2607   0.990       .  S
O2593      H2614   0.990       .  S
O2594      C2598   1.299       .  A
O2595      C2598   1.294       .  A
O2596      H2606   0.990       .  S
O2597      H2610   0.990       .  S
Zr2621     O2627   2.482       .  S
Zr2621     O2629   2.382   1_454  S
Zr2621     O2630   2.378   1_554  S
Zr2621     O2632   2.400       .  S
O2622      H2678   0.990       .  S
O2622      H2686   0.990       .  S
O2624      C2645   1.291       .  A
O2625     Zr2635   2.405       .  S
O2625      C2644   1.280       .  A
O2626     Zr2634   2.363       .  S
O2626      C2645   1.273       .  A
O2627      C2644   1.295   1_554  A
O2628     Zr2636   2.499   1_455  S
O2628      C2643   1.298       .  A
O2629     Zr2636   2.357       .  S
O2630     Zr2635   2.386       .  S
O2630     Zr2636   2.329   1_455  S
O2630      H2665   0.962       .  S
O2631     Zr2634   2.397       .  S
O2631      H2668   0.967       .  S
O2632     Zr2635   2.394   1_554  S
O2632     Zr2651   2.413       .  S
Zr2633     O2658   2.435       .  S
Zr2633     O2652   2.383       .  S
Zr2633     O2660   2.422   1_655  S
Zr2633     O2648   2.438       .  S
Zr2633     O2639   2.408   1_655  S
Zr2633     O2640   2.397       .  S
Zr2633     O2641   2.373       .  S
Zr2633     O2642   2.383   1_655  S
Zr2634     O2653   2.444       .  S
Zr2634     O2646   2.436       .  S
Zr2635     O2637   2.435       .  S
Zr2635     O2659   2.436       .  S
Zr2635     O2661   2.440       .  S
Zr2635     O2639   2.403       .  S
Zr2635     O2642   2.371       .  S
Zr2636     O2662   2.436   1_655  S
Zr2636     O2663   2.434       .  S
Zr2636     O2638   2.435       .  S
Zr2636     O2639   2.425   1_655  S
Zr2636     O2640   2.405       .  S
O2637      H2674   0.990       .  S
O2638      H2669   0.990       .  S
O2638      H2683   0.990       .  S
O2640      H2666   0.966       .  S
O2641     Zr2651   2.360   1_656  S
O2642     Zr2651   2.346   1_556  S
O2642      H2667   0.964       .  S
C2645      C2792   1.469       .  S
O2646      H2682   0.990       .  S
O2647      C2649   1.277       .  A
O2648      C2649   1.287       .  A
O2650      H2679   0.990       .  S
Zr2651     O2655   2.443       .  S
Zr2651     O2656   2.443   1_455  S
O2652      C2657   1.275       .  A
O2653      H2670   0.989       .  S
O2653      H2685   0.990       .  S
O2654      H2671   0.990       .  S
O2655      H2675   0.990       .  S
O2655      H2684   0.990       .  S
O2656      C2657   1.288   1_554  A
O2658      H2677   0.990       .  S
O2658      H2681   0.990       .  S
O2659      H2673   0.989       .  S
O2659      H2680   0.990       .  S
O2660      C2664   1.283       .  A
O2661      C2664   1.287       .  A
O2662      H2672   0.990       .  S
O2663      H2676   0.990       .  S
C2664      C2764   1.484       .  S
Zr2687     O2688   2.437       .  S
Zr2687     O2689   2.380       .  S
Zr2687     O2690   2.440   1_655  S
Zr2687     O2693   2.471       .  S
Zr2687     O2695   2.356   1_655  S
Zr2687     O2696   2.384       .  S
Zr2687     O2697   2.421   1_655  S
Zr2687     O2698   2.367       .  S
O2688      H2744   0.990       .  S
O2688      H2752   0.990       .  S
O2689      C2709   1.274       .  A
O2690      C2711   1.281       .  A
O2691     Zr2701   2.400       .  S
O2691      C2710   1.278       .  A
O2692     Zr2700   2.388       .  S
O2692      C2711   1.267       .  A
O2693      C2710   1.292       .  A
O2694     Zr2702   2.497   1_655  S
O2694      C2709   1.293       .  A
O2695     Zr2700   2.360       .  S
O2695     Zr2702   2.344       .  S
O2696     Zr2701   2.419       .  S
O2696     Zr2702   2.344   1_655  S
O2696      H2731   0.964       .  S
O2697     Zr2700   2.417       .  S
O2697     Zr2717   2.405   1_455  S
O2697      H2734   0.968       .  S
O2698     Zr2701   2.409       .  S
O2698     Zr2717   2.423       .  S
Zr2699     O2724   2.437       .  S
Zr2699     O2718   2.385       .  S
Zr2699     O2726   2.428   1_455  S
Zr2699     O2714   2.424       .  S
Zr2699     O2705   2.414   1_455  S
Zr2699     O2706   2.418       .  S
Zr2699     O2707   2.388       .  S
Zr2699     O2708   2.381   1_455  S
Zr2700     O2719   2.431       .  S
Zr2700     O2712   2.434       .  S
Zr2700     O2713   2.438       .  S
Zr2700     O2706   2.381       .  S
Zr2700     O2707   2.332       .  S
Zr2701     O2703   2.431       .  S
Zr2701     O2725   2.433       .  S
Zr2701     O2727   2.454       .  S
Zr2701     O2705   2.412       .  S
Zr2701     O2708   2.371       .  S
Zr2702     O2728   2.434   1_455  S
Zr2702     O2729   2.434       .  S
Zr2702     O2704   2.436       .  S
Zr2702     O2705   2.416   1_455  S
Zr2702     O2706   2.411       .  S
O2703      H2740   0.990       .  S
O2704      H2735   0.990       .  S
O2704      H2749   0.990       .  S
O2706      H2732   0.966       .  S
O2707     Zr2717   2.388   1_455  S
O2708     Zr2717   2.362       .  S
O2708      H2733   0.963       .  S
C2711      C2757   1.465       .  S
O2712      H2748   0.990       .  S
O2713      C2715   1.284       .  A
O2714      C2715   1.282       .  A
O2716     Zr2717   2.443       .  S
O2716      H2745   0.989       .  S
Zr2717     O2720   2.439   1_655  S
Zr2717     O2721   2.445       .  S
Zr2717     O2722   2.438   1_655  S
O2718      C2723   1.278       .  A
O2719      H2736   0.990       .  S
O2719      H2751   0.990       .  S
O2720      H2737   0.989       .  S
O2721      H2741   0.990       .  S
O2721      H2750   0.990       .  S
O2722      C2723   1.286       .  A
O2724      H2743   0.990       .  S
O2724      H2747   0.990       .  S
O2725      H2739   0.990       .  S
O2725      H2746   0.991       .  S
O2726      C2730   1.284       .  A
O2727      C2730   1.291       .  A
O2728      H2738   0.990       .  S
O2729      H2742   0.989       .  S
C2730      C2785   1.493       .  S
C2753      C2754   1.412       .  A
C2753      C2758   1.414       .  A
C2753      C2771   1.442       .  S
C2754      C2759   1.503       .  S
C2754      C2755   1.413       .  A
C2755      C2756   1.399       .  A
C2755      C2760   1.446       .  S
C2756      C2757   1.407       .  A
C2756      C2772   1.449       .  S
C2757      C2758   1.411       .  A
C2758      C2761   1.448       .  S
C2759      C2762   1.402       .  A
C2759      C2766   1.404       .  A
C2760      N2777   1.157       .  T
C2761      N2779   1.157       .  T
C2762      C2763   1.404       .  A
C2762      C2767   1.437       .  S
C2763      C2764   1.419       .  A
C2763      C2769   1.446   1_455  S
C2764      C2765   1.426       .  A
C2765      C2766   1.415       .  A
C2765      C2768   1.447       .  S
C2766      C2770   1.443       .  S
C2767      N2774   1.156       .  T
C2768      N2775   1.157       .  T
C2769      N2773   1.157       .  T
C2770      N2776   1.157       .  T
C2771      N2780   1.156       .  T
C2772      N2778   1.158       .  T
C2781      C2782   1.404       .  A
C2781      C2786   1.417       .  A
C2781      C2799   1.444       .  S
C2782      C2787   1.513       .  S
C2782      C2783   1.403       .  A
C2783      C2784   1.409       .  A
C2783      C2788   1.442       .  S
C2784      C2785   1.425       .  A
C2784      C2800   1.444   1_655  S
C2785      C2786   1.427       .  A
C2786      C2789   1.446       .  S
C2787      C2790   1.416       .  A
C2787      C2794   1.416       .  A
C2788      N2805   1.157       .  T
C2789      N2807   1.157       .  T
C2790      C2791   1.397       .  A
C2790      C2795   1.448       .  S
C2791      C2792   1.403       .  A
C2791      C2797   1.448       .  S
C2792      C2793   1.411       .  A
C2793      C2794   1.418       .  A
C2793      C2796   1.447       .  S
C2794      C2798   1.444       .  S
C2795      N2802   1.157       .  T
C2796      N2803   1.157       .  T
C2797      N2801   1.156       .  T
C2798      N2804   1.157       .  T
C2799      N2808   1.157       .  T
C2800      N2806   1.157       .  T
C2809      C2810   1.399       .  A
C2809      C2814   1.402       .  A
C2809      C2827   1.448       .  S
C2810      C2815   1.521       .  S
C2810      C2811   1.425       .  A
C2811      C2812   1.417       .  A
C2811      C2816   1.450       .  S
C2812      C2813   1.418       .  A
C2812      C2828   1.450       .  S
C2813      C2814   1.426       .  A
C2814      C2817   1.448       .  S
C2815      C2818   1.398       .  A
C2815      C2822   1.412       .  A
C2816      N2833   1.158       .  T
C2817      N2835   1.156       .  T
C2818      C2819   1.414       .  A
C2818      C2823   1.444       .  S
C2819      C2820   1.432       .  A
C2819      C2825   1.446       .  S
C2820      C2821   1.415       .  A
C2821      C2822   1.413       .  A
C2821      C2824   1.440       .  S
C2822      C2826   1.443       .  S
C2823      N2830   1.157       .  T
C2824      N2831   1.155       .  T
C2825      N2829   1.157       .  T
C2826      N2832   1.157       .  T
C2827      N2836   1.157       .  T
C2828      N2834   1.157       .  T
C2837      C2838   1.406       .  A
C2837      C2842   1.411       .  A
C2837      C2855   1.446       .  S
C2838      C2843   1.495       .  S
C2838      C2839   1.414       .  A
C2839      C2840   1.402       .  A
C2839      C2844   1.451       .  S
C2840      C2841   1.415       .  A
C2840      C2856   1.451       .  S
C2841      C2842   1.417       .  A
C2842      C2845   1.447       .  S
C2843      C2846   1.409       .  A
C2843      C2850   1.393       .  A
C2844      N2861   1.158       .  T
C2845      N2863   1.157       .  T
C2846      C2847   1.411       .  A
C2846      C2851   1.446       .  S
C2847      C2848   1.412       .  A
C2847      C2853   1.446       .  S
C2848      C2849   1.432       .  A
C2849      C2850   1.416       .  A
C2849      C2852   1.439       .  S
C2850      C2854   1.450       .  S
C2851      N2858   1.157       .  T
C2852      N2859   1.157       .  T
C2853      N2857   1.157   1_565  T
C2854      N2860   1.158       .  T
C2855      N2864   1.157       .  T
C2856      N2862   1.157       .  T
