geometry optimzed in LAMMPS
_audit_creation_date              2020-11-30 
_audit_creation_method            'lammps2cif' 
_symmetry_space_group_name_H-M    'P1' 
_symmetry_Int_Tables_number       1 
_symmetry_cell_setting            triclinic 
loop_ 
_symmetry_equiv_pos_as_xyz 
  x,y,z 
_cell_length_a                    30.54531443 
_cell_length_b                    22.18842401394428 
_cell_length_c                    29.808182050994546 
_cell_angle_alpha                 88.56575004061965 
_cell_angle_beta                  88.08702298533784 
_cell_angle_gamma                 90.02921244041406 
loop_ 
_atom_site_label 
_atom_site_type_symbol 
_atom_site_fract_x 
_atom_site_fract_y 
_atom_site_fract_z 
_atom_site_charge 
C1          C  0.07728829  0.39702676  0.99895123    -0.02900
C2          C  0.42354170  0.56407705  0.01593636    -0.02900
O3          O  0.24856594  0.62413801  0.23162950    -0.81300
O4          O  0.26341568  0.35219872  0.21168098    -0.66000
O5          O  0.21899152  0.50789094  0.24179096    -1.12600
C6          C  0.32230332  0.48958615  0.35852661     1.05600
O7          O  0.25053331  0.33141195  0.28265960    -0.79200
O8          O  0.23857607  0.39805027  0.35315353    -0.66800
Ni9        Ni  0.21308792  0.57087127  0.19908595     1.34900
C10         C  0.21076877  0.44002263  0.35518234     0.84300
O11         O  0.19965145  0.42402468  0.17638887    -0.79800
O12         O  0.17780955  0.52014856  0.16464180    -0.90000
C13         C  0.26213633  0.31388083  0.24414956     0.83900
O14         O  0.26271958  0.55451531  0.16179743    -0.68200
O15         O  0.32333226  0.43356603  0.34951961    -0.87500
C16         C  0.28889905  0.51064873  0.15768324     0.84700
C17         C  0.17666469  0.46410170  0.15616740     1.06300
H18         H  0.30971780  0.45263353  0.25814220     0.38100
O19         O  0.28087237  0.44497635  0.27127427    -1.10200
O20         O  0.21314916  0.48790315  0.33097341    -0.66800
Ni21       Ni  0.25784711  0.52018917  0.28979750     1.26300
O22         O  0.28479532  0.46162205  0.18042257    -0.67100
O23         O  0.29767529  0.52783582  0.33851067    -0.79300
C24         C  0.23703011  0.63878249  0.27094520     0.84100
O25         O  0.23466762  0.59889344  0.30230792    -0.66500
Ni26       Ni  0.28749876  0.38278589  0.31476071     1.27400
Ni27       Ni  0.24098107  0.43174346  0.22372985     1.26100
H28         H  0.18983739  0.50087443  0.25444325     0.38600
C29         C  0.33836574  0.07094338  0.24446335    -0.02900
C30         C  0.18773147  0.89428896  0.26678732    -0.02900
O31         O  0.02702010  0.12208163  0.03622716    -0.81300
O32         O  0.48701261  0.85009583  0.04943069    -0.66000
O33         O  0.04423590  0.00158896  0.02214642    -1.12600
C34         C  0.44787125  0.00174839  0.39879120     1.05600
O35         O  0.50764990  0.83194920  0.48031698    -0.79200
O36         O  0.03203860  0.90383274  0.41248348    -0.66800
Ni37       Ni  0.05647825  0.05758423  0.06684990     1.34900
C38         C  0.05775242  0.94849894  0.40913896     0.84300
O39         O  0.05176466  0.90977729  0.09008568    -0.79800
O40         O  0.08687707  0.99730915  0.10104165    -0.90000
C41         C  0.48982687  0.81393574  0.01694732     0.83900
O42         O  0.50503614  0.04481046  0.10337345    -0.68200
O43         O  0.44885663  0.94478966  0.40568801    -0.87500
C44         C  0.47290389  0.00838234  0.10464394     0.84700
C45         C  0.07928521  0.94181594  0.11045408     1.06300
H46         H  0.45123278  0.95513004  0.99901134     0.38100
O47         O  0.48093681  0.94772783  0.48839930    -1.10200
O48         O  0.05157153  0.99660341  0.43069788    -0.66800
Ni49       Ni  0.00681715  0.02376587  0.47305823     1.26300
O50         O  0.47153823  0.96307209  0.07909992    -0.67100
O51         O  0.46803164  0.03932932  0.42319855    -0.79300
C52         C  0.03520438  0.13915704  0.99591106     0.84100
O53         O  0.03264069  0.10255767  0.46380947    -0.66500
Ni54       Ni  0.47800073  0.88912037  0.44392836     1.27400
Ni55       Ni  0.01566411  0.92736759  0.03926244     1.26100
H56         H  0.07252150  0.99072224  0.00940830     0.38600
C57         C  0.13887709  0.96823466  0.31044500    -0.26700
C58         C  0.15982158  0.91099697  0.31042723    -0.14800
C59         C  0.15367146  0.87444695  0.35085448     0.35800
C60         C  0.12115664  0.88952666  0.38264993    -0.26200
C61         C  0.09654521  0.94214441  0.37865116    -0.15400
C62         C  0.10695379  0.98339188  0.34323931     0.36900
N63         N  0.08380638  0.03912795  0.33811938    -0.89700
H64         H  0.14478540  0.99957043  0.28242381     0.18000
H65         H  0.11527311  0.85956256  0.41154923     0.18000
N66         N  0.18196303  0.82621076  0.36451592    -0.88700
H67         H  0.08839544  0.06454047  0.36664347     0.35400
H68         H  0.05040314  0.02963399  0.33608681     0.40500
H69         H  0.21437465  0.83135401  0.35323347     0.40100
H70         H  0.16828024  0.78429076  0.35821528     0.35000
C71         C  0.11140640  0.90403016  0.22919275    -0.26700
C72         C  0.15742399  0.89500682  0.22399972    -0.14800
C73         C  0.17304859  0.88450004  0.17855751     0.35800
C74         C  0.14572035  0.89619257  0.14228741    -0.26200
C75         C  0.10257079  0.91524019  0.14880128    -0.15400
C76         C  0.08452169  0.91633529  0.19286642     0.36900
N77         N  0.03950467  0.93211179  0.20242625    -0.89700
H78         H  0.09505481  0.90246371  0.26181718     0.18000
H79         H  0.15917767  0.89298082  0.10830346     0.18000
N80         N  0.21668296  0.86507053  0.16674068    -0.88700
H81         H  0.52437486  0.89500837  0.21870624     0.35400
H82         H  0.52238836  0.94024689  0.17319855     0.40500
H83         H  0.23570413  0.85987197  0.19441588     0.40100
H84         H  0.23174579  0.89879285  0.14650676     0.35000
C85         C  0.28568566  0.00033775  0.29163826    -0.26700
C86         C  0.29720189  0.02754503  0.24932967    -0.14800
C87         C  0.26556188  0.02102292  0.21561145     0.35800
C88         C  0.23046162  0.98063435  0.22243255    -0.26200
C89         C  0.22448103  0.94414720  0.26186686    -0.15400
C90         C  0.25046959  0.96044020  0.29834835     0.36900
N91         N  0.24112014  0.93807609  0.34315502    -0.89700
H92         H  0.30298830  0.01115511  0.32140525     0.18000
H93         H  0.20693488  0.98102785  0.19642808     0.18000
N94         N  0.26553909  0.05715999  0.17507892    -0.88700
H95         H  0.23313650  0.97482182  0.36312938     0.35400
H96         H  0.26931571  0.91836047  0.35593911     0.40500
H97         H  0.29526522  0.05396129  0.15725291     0.40100
H98         H  0.25884432  0.10179586  0.18290172     0.35000
C99         C  0.38370937  0.00121569  0.29160768    -0.26700
C100        C  0.36784495  0.06081614  0.28672957    -0.14800
C101        C  0.38218141  0.10301218  0.31930252     0.35800
C102        C  0.40884828  0.08321966  0.35460807    -0.26200
C103        C  0.42192257  0.02290470  0.35964009    -0.15400
C104        C  0.40950251  0.98201670  0.32672798     0.36900
N105        N  0.42311541  0.92014570  0.32810333    -0.89700
H106        H  0.37471966  0.96749745  0.26789406     0.18000
H107        H  0.41870415  0.11552294  0.37902299     0.18000
N108        N  0.37183791  0.16595617  0.31873846    -0.88700
H109        H  0.44066116  0.91133096  0.29826316     0.35400
H110        H  0.39509675  0.89293683  0.32961772     0.40500
H111        H  0.34055160  0.17276089  0.33263649     0.40100
H112        H  0.37643237  0.18590115  0.28693771     0.35000
C113        C  0.36694495  0.00210562  0.17931046    -0.26700
C114        C  0.37099064  0.05505578  0.20465254    -0.14800
C115        C  0.41044504  0.08851668  0.19772450     0.35800
C116        C  0.44148820  0.07247870  0.16476950    -0.26200
C117        C  0.43661107  0.02151867  0.13830043    -0.15400
C118        C  0.39874986  0.98538367  0.14652494     0.36900
N119        N  0.39190879  0.93068627  0.12324565    -0.89700
H120        H  0.33968543  0.97170482  0.18566242     0.18000
H121        H  0.47038865  0.10066296  0.16075015     0.18000
N122        N  0.41974350  0.13917867  0.22467539    -0.88700
H123        H  0.41810971  0.90159762  0.12921080     0.35400
H124        H  0.39083722  0.94079765  0.08887036     0.40500
H125        H  0.42543654  0.17689842  0.20357881     0.40100
H126        H  0.44859961  0.13015537  0.24151898     0.35000
C127        C  0.25843387  0.74496134  0.27432114    -0.26700
C128        C  0.22509306  0.70201205  0.27783319    -0.14800
C129        C  0.18120759  0.72106224  0.27666047     0.35800
C130        C  0.17197218  0.78265106  0.27257673    -0.26200
C131        C  0.20498149  0.82781684  0.27059679    -0.15400
C132        C  0.24973360  0.80683321  0.27098885     0.36900
N133        N  0.28794830  0.84433193  0.26735614    -0.89700
H134        H  0.29224421  0.72994511  0.27308809     0.18000
H135        H  0.13778648  0.79555586  0.27229400     0.18000
N136        N  0.14500196  0.67944884  0.27875537    -0.88700
H137        H  0.29357849  0.86458433  0.29766032     0.35400
H138        H  0.28802210  0.87435317  0.23994049     0.40500
H139        H  0.15519969  0.63490072  0.28320584     0.40100
H140        H  0.12968929  0.68225562  0.24792228     0.35000
C141        C  0.28747795  0.15141925  0.27387337    -0.26700
C142        C  0.31795990  0.13515739  0.23975441    -0.14800
C143        C  0.32245036  0.17591214  0.20170476     0.35800
C144        C  0.30283335  0.23331503  0.20296221    -0.26200
C145        C  0.27628593  0.25036512  0.23958034    -0.15400
C146        C  0.26687259  0.20742344  0.27422239     0.36900
N147        N  0.23660244  0.22040065  0.31049318    -0.89700
H148        H  0.28039174  0.12073037  0.30197327     0.18000
H149        H  0.30860924  0.26476814  0.17498010     0.18000
N150        N  0.34360965  0.15894086  0.16034933    -0.88700
H151        H  0.25313162  0.21617071  0.34057420     0.35400
H152        H  0.21166901  0.18805086  0.31109849     0.40500
H153        H  0.36798141  0.19070174  0.15184834     0.40100
H154        H  0.32056304  0.16111799  0.13520128     0.35000
C155        C  0.33597020  0.56009909  0.42059109    -0.26700
C156        C  0.34975784  0.51048941  0.39560422    -0.14800
C157        C  0.38750517  0.47932742  0.40906578     0.35800
C158        C  0.40969905  0.49775284  0.44640816    -0.26200
C159        C  0.39754149  0.54901066  0.47199771    -0.15400
C160        C  0.35822781  0.57922954  0.45838321     0.36900
N161        N  0.33847425  0.62846342  0.48199012    -0.89700
H162        H  0.30627731  0.58358090  0.41162369     0.18000
H163        H  0.43577023  0.46781045  0.45583315     0.18000
N164        N  0.40466698  0.42815144  0.38585989    -0.88700
H165        H  0.33807429  0.66584633  0.45992793     0.35400
H166        H  0.35662305  0.64120131  0.50875025     0.40500
H167        H  0.40939716  0.43966395  0.35181771     0.40100
H168        H  0.38274888  0.39213462  0.38988353     0.35000
C169        C  0.36920861  0.49362613  0.05853432    -0.26700
C170        C  0.38965580  0.55122742  0.05588037    -0.14800
C171        C  0.37436596  0.59434164  0.08791414     0.35800
C172        C  0.34451491  0.57715083  0.12225797    -0.26200
C173        C  0.32590313  0.51978911  0.12505457    -0.15400
C174        C  0.33839249  0.47717086  0.09297742     0.36900
N175        N  0.31851436  0.41840643  0.09420198    -0.89700
H176        H  0.37826819  0.46042242  0.03389438     0.18000
H177        H  0.33397094  0.61080281  0.14609384     0.18000
N178        N  0.38581972  0.65695915  0.08515196    -0.88700
H179        H  0.32987301  0.39337689  0.06693761     0.35400
H180        H  0.32895902  0.39559110  0.12302276     0.40500
H181        H  0.39975062  0.66861538  0.11533171     0.40100
H182        H  0.35718745  0.68230832  0.08186718     0.35000
C183        C  0.48244826  0.71144176  0.05295186    -0.26700
C184        C  0.47156447  0.75222649  0.01878873    -0.14800
C185        C  0.44856012  0.73135774  0.98208942     0.35800
C186        C  0.43593078  0.67088507  0.98053271    -0.26200
C187        C  0.44297190  0.62971533  0.01639713    -0.15400
C188        C  0.47020980  0.65049306  0.05154404     0.36900
N189        N  0.98578868  0.61182563  0.08682706    -0.89700
H190        H  0.00228765  0.72639219  0.08004225     0.18000
H191        H  0.42036799  0.65716122  0.95053226     0.18000
N192        N  0.43751567  0.77196983  0.94605177    -0.89900
H193        H  0.00859638  0.58156020  0.07358233     0.35400
H194        H  0.45989054  0.58875695  0.10305140     0.40500
H195        H  0.40346158  0.77174731  0.94342642     0.40100
H196        H  0.45139227  0.75562372  0.91621773     0.35000
C197        C  0.00763176  0.43417574  0.03691927    -0.26700
C198        C  0.03737608  0.44164659  0.99959886    -0.14800
C199        C  0.03281267  0.49617327  0.47333109     0.35800
C200        C  0.99702865  0.53386923  0.48150549    -0.26200
C201        C  0.46530696  0.52315533  0.01644504    -0.15400
C202        C  0.47387573  0.47490004  0.04692401     0.36900
N203        N  0.45127852  0.46835062  0.08958863    -0.89700
H204        H  0.01189910  0.39669570  0.06026391     0.18000
H205        H  0.49313306  0.57218078  0.45873826     0.18000
N206        N  0.06392286  0.51877768  0.43996633    -0.88700
H207        H  0.47424171  0.47168352  0.11465579     0.35400
H208        H  0.43775510  0.42502264  0.09207924     0.40500
H209        H  0.09542934  0.52157150  0.45212960     0.40100
H210        H  0.06227925  0.49572811  0.41015067     0.35000
C211        C  0.13463147  0.41207827  0.37954155    -0.26700
C212        C  0.17610989  0.43330099  0.38999977    -0.14800
C213        C  0.18692199  0.43824680  0.43499370     0.35800
C214        C  0.15584682  0.42463026  0.46867386    -0.26200
C215        C  0.11192506  0.40891508  0.45957332    -0.15400
C216        C  0.10269693  0.39837704  0.41367513     0.36900
N217        N  0.06174742  0.37207064  0.40171921    -0.89700
H218        H  0.12762783  0.40444696  0.34473628     0.18000
H219        H  0.16801302  0.42496007  0.50215707     0.18000
N220        N  0.22988195  0.45610239  0.44763526    -0.88700
H221        H  0.06111008  0.36544260  0.36714729     0.35400
H222        H  0.03642274  0.40198151  0.40933016     0.40500
H223        H  0.23708617  0.49820286  0.43263273     0.40100
H224        H  0.25271619  0.42481266  0.43566960     0.35000
C225        C  0.11075000  0.47107934  0.05124015    -0.26700
C226        C  0.09863832  0.41033665  0.04513205    -0.14800
C227        C  0.10621039  0.36895453  0.08163523     0.35800
C228        C  0.13244217  0.38699440  0.11715616    -0.26200
C229        C  0.14779676  0.44637728  0.11968475    -0.15400
C230        C  0.13519975  0.48913169  0.08685181     0.36900
N231        N  0.14863128  0.55103806  0.08797616    -0.89700
H232        H  0.10372731  0.50519712  0.02610637     0.18000
H233        H  0.13994820  0.35484105  0.14374337     0.18000
N234        N  0.08629047  0.31029333  0.08441737    -0.88700
H235        H  0.12053032  0.57796652  0.08865702     0.35400
H236        H  0.16671901  0.56152816  0.05839693     0.40500
H237        H  0.05251015  0.31621542  0.08874861     0.40100
H238        H  0.09639161  0.28588199  0.11268128     0.35000
C239        C  0.01306662  0.24502129  0.98339505    -0.26700
C240        C  0.04678860  0.20307069  0.98769645    -0.14800
C241        C  0.08996448  0.22377532  0.49207073     0.35800
C242        C  0.09794122  0.28583320  0.49429848    -0.26200
C243        C  0.06386905  0.32923240  0.99404775    -0.15400
C244        C  0.02094953  0.30737313  0.98510095     0.36900
N245        N  0.98525195  0.34697306  0.97565124    -0.89700
H246        H  0.47988538  0.22919463  0.97921365     0.18000
H247        H  0.13139927  0.30041143  0.49843971     0.18000
N248        N  0.12660956  0.18337297  0.49528267    -0.88700
H249        H  0.45961914  0.33743552  0.99885494     0.35400
H250        H  0.97423405  0.33776690  0.94369434     0.40500
H251        H  0.11735676  0.13848843  0.49181608     0.40100
H252        H  0.13893821  0.18702035  0.52740911     0.35000
C253        C  0.07732002  0.39692919  0.49898374    -0.02900
C254        C  0.42356540  0.56397078  0.51597733    -0.02900
O255        O  0.24858859  0.62420995  0.73154645    -0.81300
O256        O  0.26342291  0.35219704  0.71174425    -0.66000
O257        O  0.21899535  0.50793458  0.74177601    -1.12600
C258        C  0.32225054  0.48973771  0.85853713     1.05600
O259        O  0.25054415  0.33143921  0.78271953    -0.79200
O260        O  0.23849001  0.39815512  0.85314006    -0.66800
Ni261      Ni  0.21313598  0.57087501  0.69902552     1.34900
C262        C  0.21071667  0.44016851  0.85515943     0.84300
O263        O  0.19964916  0.42397771  0.67643410    -0.79800
O264        O  0.17787663  0.52011115  0.66459775    -0.90000
C265        C  0.26217553  0.31389890  0.74422219     0.83900
O266        O  0.26280491  0.55445147  0.66181082    -0.68200
O267        O  0.32323585  0.43369928  0.84959178    -0.87500
C268        C  0.28897308  0.51056475  0.65773796     0.84700
C269        C  0.17668885  0.46405044  0.65617916     1.06300
H270        H  0.30971055  0.45265661  0.75817824     0.38100
O271        O  0.28086144  0.44502796  0.77130477    -1.10200
O272        O  0.21314550  0.48806122  0.83096759    -0.66800
Ni273      Ni  0.25784593  0.52028414  0.78977085     1.26300
O274        O  0.28481474  0.46154575  0.68046850    -0.67100
O275        O  0.29766773  0.52799155  0.83847242    -0.79300
C276        C  0.23705098  0.63888832  0.77085382     0.84100
O277        O  0.23467483  0.59901664  0.80222913    -0.66500
Ni278      Ni  0.28745822  0.38287179  0.81482441     1.27400
Ni279      Ni  0.24097776  0.43174656  0.72376695     1.26100
H280        H  0.18983935  0.50095101  0.75442421     0.38600
C281        C  0.33846832  0.07098449  0.74451118    -0.02900
C282        C  0.18774243  0.89443837  0.76679053    -0.02900
O283        O  0.02692655  0.12197931  0.53619793    -0.81300
O284        O  0.48690326  0.85009107  0.54938860    -0.66000
O285        O  0.04417656  0.00151717  0.52205416    -1.12600
C286        C  0.44787990  0.00176737  0.89889703     1.05600
O287        O  0.50777803  0.83206996  0.98035669    -0.79200
O288        O  0.03194761  0.90393433  0.91243312    -0.66800
Ni289      Ni  0.05645289  0.05749087  0.56676111     1.34900
C290        C  0.05774702  0.94851155  0.90916933     0.84300
O291        O  0.05166031  0.90975481  0.59007031    -0.79800
O292        O  0.08691483  0.99721114  0.60089109    -0.90000
C293        C  0.48968580  0.81389615  0.51692592     0.83900
O294        O  0.50508281  0.04468407  0.60335245    -0.68200
O295        O  0.44875760  0.94481791  0.90586530    -0.87500
C296        C  0.47289906  0.00834145  0.60458932     0.84700
C297        C  0.07925015  0.94175762  0.61038498     1.06300
H298        H  0.45117099  0.95504001  0.49890392     0.38100
O299        O  0.48098958  0.94779573  0.98849019    -1.10200
O300        O  0.05166741  0.99655872  0.93082274    -0.66800
Ni301      Ni  0.00690213  0.02380901  0.97312894     1.26300
O302        O  0.47146883  0.96309243  0.57899324    -0.67100
O303        O  0.46813597  0.03933889  0.92323359    -0.79300
C304        C  0.03508756  0.13910228  0.49588816     0.84100
O305        O  0.03275843  0.10258030  0.96385115    -0.66500
Ni306      Ni  0.47800725  0.88918075  0.94403203     1.27400
Ni307      Ni  0.01558291  0.92732504  0.53919835     1.26100
H308        H  0.07244695  0.99063188  0.50929955     0.38600
C309        C  0.13889076  0.96832555  0.81050362    -0.26700
C310        C  0.15982390  0.91108296  0.81043883    -0.14800
C311        C  0.15365044  0.87446383  0.85082912     0.35800
C312        C  0.12110748  0.88948190  0.88261613    -0.26200
C313        C  0.09652219  0.94213072  0.87866438    -0.15400
C314        C  0.10696206  0.98343943  0.84330313     0.36900
N315        N  0.08383687  0.03920138  0.83823686    -0.89700
H316        H  0.14481721  0.99970872  0.78251567     0.18000
H317        H  0.11520316  0.85947034  0.91148453     0.18000
N318        N  0.18196878  0.82625352  0.86448193    -0.88700
H319        H  0.08842391  0.06455173  0.86679239     0.35400
H320        H  0.05043146  0.02973611  0.83618081     0.40500
H321        H  0.21437533  0.83144451  0.85319325     0.40100
H322        H  0.16831568  0.78432429  0.85815257     0.35000
C323        C  0.11141318  0.90421665  0.72917088    -0.26700
C324        C  0.15743578  0.89520230  0.72399067    -0.14800
C325        C  0.17306625  0.88468418  0.67855096     0.35800
C326        C  0.14572049  0.89625872  0.64227059    -0.26200
C327        C  0.10254333  0.91521302  0.64875826    -0.15400
C328        C  0.08450550  0.91637176  0.69282928     0.36900
N329        N  0.03946903  0.93205684  0.70237725    -0.89700
H330        H  0.09506219  0.90270661  0.76179482     0.18000
H331        H  0.15918513  0.89302677  0.60829116     0.18000
N332        N  0.21672317  0.86533466  0.66674475    -0.88700
H333        H  0.52439918  0.89496767  0.71872456     0.35400
H334        H  0.52233798  0.94000222  0.67311680     0.40500
H335        H  0.23576223  0.86026430  0.69441892     0.40100
H336        H  0.23173537  0.89905027  0.64646421     0.35000
C337        C  0.28574228  0.00042162  0.79169682    -0.26700
C338        C  0.29727574  0.02762566  0.74938909    -0.14800
C339        C  0.26561983  0.02115797  0.71567820     0.35800
C340        C  0.23049875  0.98080140  0.72248924    -0.26200
C341        C  0.22449766  0.94430453  0.76191215    -0.15400
C342        C  0.25048180  0.96058283  0.79840516     0.36900
N343        N  0.24108515  0.93826451  0.84321563    -0.89700
H344        H  0.30306066  0.01120766  0.82146102     0.18000
H345        H  0.20697473  0.98121484  0.69648107     0.18000
N346        N  0.26560189  0.05732245  0.67516067    -0.88700
H347        H  0.23312899  0.97504000  0.86317056     0.35400
H348        H  0.26925364  0.91850241  0.85602298     0.40500
H349        H  0.29532735  0.05412420  0.65733367     0.40100
H350        H  0.25890764  0.10195225  0.68300202     0.35000
C351        C  0.38377898  0.00123580  0.79167559    -0.26700
C352        C  0.36795333  0.06085117  0.78677096    -0.14800
C353        C  0.38232403  0.10306089  0.81932206     0.35800
C354        C  0.40895051  0.08325584  0.85465441    -0.26200
C355        C  0.42195976  0.02292349  0.85972978    -0.15400
C356        C  0.40953135  0.98202601  0.82682778     0.36900
N357        N  0.42309900  0.92013690  0.82824613    -0.89700
H358        H  0.37478048  0.96751614  0.76796647     0.18000
H359        H  0.41883020  0.11556714  0.87905336     0.18000
N360        N  0.37207005  0.16603496  0.81870357    -0.88700
H361        H  0.44066208  0.91127267  0.79842562     0.35400
H362        H  0.39506064  0.89296665  0.82975007     0.40500
H363        H  0.34082034  0.17295924  0.83265654     0.40100
H364        H  0.37664543  0.18592744  0.78688423     0.35000
C365        C  0.36698609  0.00212490  0.67934045    -0.26700
C366        C  0.37106945  0.05506953  0.70468266    -0.14800
C367        C  0.41052805  0.08851130  0.69771465     0.35800
C368        C  0.44153598  0.07246518  0.66472605    -0.26200
C369        C  0.43662629  0.02150549  0.63826530    -0.15400
C370        C  0.39875999  0.98538927  0.64652426     0.36900
N371        N  0.39188523  0.93069553  0.62325130    -0.89700
H372        H  0.33971837  0.97174338  0.68571217     0.18000
H373        H  0.47043681  0.10064344  0.66067329     0.18000
N374        N  0.41986598  0.13917073  0.72465082    -0.88700
H375        H  0.41808927  0.90160015  0.62918598     0.35400
H376        H  0.39078051  0.94080989  0.58887875     0.40500
H377        H  0.42554552  0.17688652  0.70354642     0.40100
H378        H  0.44873877  0.13013858  0.74146269     0.35000
C379        C  0.25845552  0.74509089  0.77421310    -0.26700
C380        C  0.22511810  0.70213433  0.77772020    -0.14800
C381        C  0.18123176  0.72118878  0.77657242     0.35800
C382        C  0.17199265  0.78278181  0.77250272    -0.26200
C383        C  0.20499720  0.82795518  0.77055443    -0.15400
C384        C  0.24975002  0.80696952  0.77093943     0.36900
N385        N  0.28796162  0.84447891  0.76740162    -0.89700
H386        H  0.29226674  0.73007947  0.77297332     0.18000
H387        H  0.13780631  0.79568444  0.77222565     0.18000
N388        N  0.14502667  0.67957539  0.77869324    -0.88700
H389        H  0.29352667  0.86469217  0.79773572     0.35400
H390        H  0.28806768  0.87454087  0.74000952     0.40500
H391        H  0.15522495  0.63502979  0.78315757     0.40100
H392        H  0.12970420  0.68236284  0.74786518     0.35000
C393        C  0.28766102  0.15148874  0.77398516    -0.26700
C394        C  0.31808861  0.13521245  0.73982279    -0.14800
C395        C  0.32254418  0.17596328  0.70176816     0.35800
C396        C  0.30290260  0.23335209  0.70303180    -0.26200
C397        C  0.27638368  0.25040181  0.73967404    -0.15400
C398        C  0.26704471  0.20748126  0.77435009     0.36900
N399        N  0.23683575  0.22046355  0.81067200    -0.89700
H400        H  0.28062399  0.12081382  0.80210529     0.18000
H401        H  0.30863324  0.26479282  0.67503354     0.18000
N402        N  0.34368848  0.15899816  0.66040329    -0.88700
H403        H  0.25342407  0.21627119  0.84071964     0.35400
H404        H  0.21191320  0.18809513  0.81134052     0.40500
H405        H  0.36804615  0.19077324  0.65188733     0.40100
H406        H  0.32062907  0.16115866  0.63526715     0.35000
C407        C  0.33600057  0.56035948  0.92051380    -0.26700
C408        C  0.34971892  0.51065535  0.89559040    -0.14800
C409        C  0.38741818  0.47941364  0.90908869     0.35800
C410        C  0.40964024  0.49785857  0.94639811    -0.26200
C411        C  0.39753736  0.54917449  0.97194380    -0.15400
C412        C  0.35827297  0.57948253  0.95829827     0.36900
N413        N  0.33858480  0.62879394  0.98187133    -0.89700
H414        H  0.30634530  0.58390848  0.91151311     0.18000
H415        H  0.43567658  0.46787057  0.95584737     0.18000
N416        N  0.40449658  0.42812133  0.88596336    -0.88700
H417        H  0.33827819  0.66617197  0.95979961     0.35400
H418        H  0.35671552  0.64146847  0.00866545     0.40500
H419        H  0.40924126  0.43952156  0.85190395     0.40100
H420        H  0.38252937  0.39216956  0.89005515     0.35000
C421        C  0.36937649  0.49344995  0.55869024    -0.26700
C422        C  0.38972135  0.55111327  0.55594826    -0.14800
C423        C  0.37439711  0.59425690  0.58794517     0.35800
C424        C  0.34455911  0.57707493  0.62229572    -0.26200
C425        C  0.32602176  0.51967222  0.62516135    -0.15400
C426        C  0.33863233  0.47696694  0.59319330     0.36900
N427        N  0.31897599  0.41805942  0.59460914    -0.89700
H428        H  0.37848964  0.46021295  0.53409289     0.18000
H429        H  0.33396393  0.61076436  0.64608019     0.18000
N430        N  0.38579266  0.65689439  0.58513200    -0.88700
H431        H  0.33043232  0.39294751  0.56742773     0.35400
H432        H  0.32951684  0.39549388  0.62349533     0.40500
H433        H  0.39972045  0.66861906  0.61529760     0.40100
H434        H  0.35713704  0.68219093  0.58183706     0.35000
C435        C  0.48241520  0.71140962  0.55293895    -0.26700
C436        C  0.47141429  0.75220022  0.51882724    -0.14800
C437        C  0.44830743  0.73134349  0.48219824     0.35800
C438        C  0.43577524  0.67083486  0.48060906    -0.26200
C439        C  0.44294881  0.62963587  0.51642220    -0.15400
C440        C  0.47020632  0.65045101  0.55154522     0.36900
N441        N  0.98584192  0.61183274  0.58682921    -0.89700
H442        H  0.00232526  0.72638165  0.57998393     0.18000
H443        H  0.42015521  0.65712010  0.45064000     0.18000
N444        N  0.43705126  0.77201304  0.44627350    -0.89900
H445        H  0.00865630  0.58157466  0.57358868     0.35400
H446        H  0.45993292  0.58877112  0.60309456     0.40500
H447        H  0.40298160  0.77169302  0.44379988     0.40100
H448        H  0.45083021  0.75578692  0.41635690     0.35000
C449        C  0.00773790  0.43420649  0.53700992    -0.26700
C450        C  0.03743605  0.44160187  0.49964421    -0.14800
C451        C  0.03276814  0.49624865  0.97331918     0.35800
C452        C  0.99697578  0.53392369  0.98148489    -0.26200
C453        C  0.46535363  0.52309255  0.51649290    -0.15400
C454        C  0.47397995  0.47491881  0.54702703     0.36900
N455        N  0.45147355  0.46848959  0.58974967    -0.89700
H456        H  0.01202488  0.39677200  0.56038819     0.18000
H457        H  0.49312903  0.57228740  0.95872732     0.18000
N458        N  0.06391007  0.51891717  0.94000839    -0.88700
H459        H  0.47449151  0.47191817  0.61475567     0.35400
H460        H  0.43796945  0.42515614  0.59234968     0.40500
H461        H  0.09539498  0.52174629  0.95222109     0.40100
H462        H  0.06233087  0.49588534  0.91017969     0.35000
C463        C  0.13459937  0.41216134  0.87951167    -0.26700
C464        C  0.17604893  0.43348571  0.88996295    -0.14800
C465        C  0.18684094  0.43855217  0.93495164     0.35800
C466        C  0.15577589  0.42492114  0.96863838    -0.26200
C467        C  0.11188043  0.40907215  0.95954216    -0.15400
C468        C  0.10266472  0.39848062  0.91364530     0.36900
N469        N  0.06171660  0.37217497  0.90168833    -0.89700
H470        H  0.12761360  0.40445888  0.84471166     0.18000
H471        H  0.16793328  0.42534911  0.00212131     0.18000
N472        N  0.22977848  0.45652557  0.94758052    -0.88700
H473        H  0.06110483  0.36545759  0.86712620     0.35400
H474        H  0.03640816  0.40214357  0.90922690     0.40500
H475        H  0.23693838  0.49861353  0.93253482     0.40100
H476        H  0.25264844  0.42526130  0.93564765     0.35000
C477        C  0.11086840  0.47096308  0.55120225    -0.26700
C478        C  0.09869031  0.41023561  0.54514933    -0.14800
C479        C  0.10618625  0.36889196  0.58169501     0.35800
C480        C  0.13238397  0.38695406  0.61723869    -0.26200
C481        C  0.14781098  0.44631163  0.61971144    -0.15400
C482        C  0.13529686  0.48903167  0.58681899     0.36900
N483        N  0.14879147  0.55091647  0.58789003    -0.89700
H484        H  0.10390828  0.50504821  0.52602118     0.18000
H485        H  0.13982711  0.35483619  0.64387035     0.18000
N486        N  0.08624959  0.31023950  0.58447642    -0.88700
H487        H  0.12071923  0.57790265  0.58850439     0.35400
H488        H  0.16692532  0.56131292  0.55832276     0.40500
H489        H  0.05246309  0.31617321  0.58872450     0.40100
H490        H  0.09627887  0.28587006  0.61278897     0.35000
C491        C  0.01297202  0.24500348  0.48349814    -0.26700
C492        C  0.04668248  0.20301665  0.48770567    -0.14800
C493        C  0.09005211  0.22387965  0.99211634     0.35800
C494        C  0.09799410  0.28595341  0.99428606    -0.26200
C495        C  0.06384331  0.32915323  0.49410190    -0.15400
C496        C  0.02089253  0.30734490  0.48522135     0.36900
N497        N  0.98518971  0.34698403  0.47587996    -0.89700
H498        H  0.47978881  0.22917009  0.47939371     0.18000
H499        H  0.13143775  0.30057698  0.99845467     0.18000
N500        N  0.12670867  0.18351780  0.99545163    -0.88700
H501        H  0.45960210  0.33736208  0.49921011     0.35400
H502        H  0.97409921  0.33783410  0.44394195     0.40500
H503        H  0.11748084  0.13861367  0.99203840     0.40100
H504        H  0.13898097  0.18726348  0.02759462     0.35000
C505        C  0.57728813  0.39703250  0.99895559    -0.02900
C506        C  0.92353272  0.56406298  0.01595035    -0.02900
O507        O  0.74857183  0.62413761  0.23164443    -0.81300
O508        O  0.76340820  0.35221314  0.21169885    -0.66000
O509        O  0.71898511  0.50790175  0.24181277    -1.12600
C510        C  0.82230181  0.48959649  0.35854521     1.05600
O511        O  0.75052914  0.33142852  0.28267729    -0.79200
O512        O  0.73857310  0.39806092  0.35317482    -0.66800
Ni513      Ni  0.71308283  0.57087889  0.19910552     1.34900
C514        C  0.71076557  0.44003313  0.35520386     0.84300
O515        O  0.69963799  0.42403571  0.17641098    -0.79800
O516        O  0.67779296  0.52015896  0.16466824    -0.90000
C517        C  0.76213516  0.31389750  0.24416817     0.83900
O518        O  0.76270924  0.55451576  0.16180946    -0.68200
O519        O  0.82332923  0.43357668  0.34953804    -0.87500
C520        C  0.78889081  0.51065054  0.15770142     0.84700
C521        C  0.67664575  0.46411157  0.15619382     1.06300
H522        H  0.80971081  0.45264489  0.25816188     0.38100
O523        O  0.78086630  0.44498787  0.27129452    -1.10200
O524        O  0.71314627  0.48791511  0.33099616    -0.66800
Ni525      Ni  0.75784303  0.52020083  0.28981799     1.26300
O526        O  0.78478763  0.46162894  0.18044572    -0.67100
O527        O  0.79767338  0.52784724  0.33853042    -0.79300
C528        C  0.73703512  0.63879229  0.27095761     0.84100
O529        O  0.73466734  0.59890884  0.30232454    -0.66500
Ni530      Ni  0.78749488  0.38279804  0.31478001     1.27400
Ni531      Ni  0.74097212  0.43175448  0.22375109     1.26100
H532        H  0.68983059  0.50088693  0.25446648     0.38600
C533        C  0.83836640  0.07095946  0.24446405    -0.02900
C534        C  0.68773414  0.89430086  0.26678183    -0.02900
O535        O  0.52700551  0.12209027  0.03622534    -0.81300
O536        O  0.98701656  0.85008331  0.04943380    -0.66000
O537        O  0.54423118  0.00159931  0.02214197    -1.12600
C538        C  0.94787599  0.00173481  0.39878594     1.05600
O539        O  0.00764977  0.83194081  0.48032745    -0.79200
O540        O  0.53202644  0.90383888  0.41246803    -0.66800
Ni541      Ni  0.55647025  0.05759474  0.06684603     1.34900
C542        C  0.55774672  0.94849808  0.40912562     0.84300
O543        O  0.55175935  0.90978918  0.09008345    -0.79800
O544        O  0.58687303  0.99732071  0.10103699    -0.90000
C545        C  0.98983123  0.81392271  0.01694998     0.83900
O546        O  0.00504160  0.04480852  0.10337673    -0.68200
O547        O  0.94886912  0.94477508  0.40567815    -0.87500
C548        C  0.97290882  0.00838078  0.10464964     0.84700
C549        C  0.57928056  0.94182767  0.11045132     1.06300
H550        H  0.95123563  0.95512629  0.99902041     0.38100
O551        O  0.98093229  0.94771810  0.48840222    -1.10200
O552        O  0.55157470  0.99659984  0.43068937    -0.66800
Ni553      Ni  0.50682633  0.02377045  0.47305158     1.26300
O554        O  0.97154385  0.96306552  0.07910922    -0.67100
O555        O  0.96802610  0.03931769  0.42320090    -0.79300
C556        C  0.53518621  0.13916904  0.99590913     0.84100
O557        O  0.53265681  0.10255338  0.46379642    -0.66500
Ni558      Ni  0.97800678  0.88910957  0.44392986     1.27400
Ni559      Ni  0.51566087  0.92737713  0.03925745     1.26100
H560        H  0.57251782  0.99073395  0.00940408     0.38600
C561        C  0.63888362  0.96824525  0.31044317    -0.26700
C562        C  0.65982471  0.91100560  0.31042166    -0.14800
C563        C  0.65366960  0.87444823  0.35084407     0.35800
C564        C  0.62114682  0.88951861  0.38263371    -0.26200
C565        C  0.59653805  0.94213937  0.37863699    -0.15400
C566        C  0.60695504  0.98339589  0.34323324     0.36900
N567        N  0.58381022  0.03913428  0.33811570    -0.89700
H568        H  0.64479721  0.99958662  0.28242643     0.18000
H569        H  0.61525902  0.85954969  0.41152943     0.18000
N570        N  0.68196924  0.82622369  0.36451075    -0.88700
H571        H  0.58839451  0.06454038  0.36664386     0.35400
H572        H  0.55040739  0.02964262  0.33607504     0.40500
H573        H  0.71437958  0.83137683  0.35322630     0.40100
H574        H  0.66829513  0.78429862  0.35820896     0.35000
C575        C  0.61140732  0.90405465  0.22919097    -0.26700
C576        C  0.65742387  0.89502083  0.22399595    -0.14800
C577        C  0.67304358  0.88450113  0.17855422     0.35800
C578        C  0.64571193  0.89618690  0.14228489    -0.26200
C579        C  0.60256602  0.91525163  0.14879966    -0.15400
C580        C  0.58452138  0.91636163  0.19286613     0.36900
N581        N  0.53950762  0.93215313  0.20242852    -0.89700
H582        H  0.59505649  0.90249396  0.26181560     0.18000
H583        H  0.65916504  0.89296087  0.10830042     0.18000
N584        N  0.71667623  0.86506320  0.16673743    -0.88700
H585        H  0.02437522  0.89495716  0.21869390     0.35400
H586        H  0.02238804  0.94021308  0.17319554     0.40500
H587        H  0.73570384  0.85989030  0.19441065     0.40100
H588        H  0.73173517  0.89877193  0.14648742     0.35000
C589        C  0.78567959  0.00036520  0.29163828    -0.26700
C590        C  0.79720022  0.02756573  0.24932913    -0.14800
C591        C  0.76556296  0.02104045  0.21560880     0.35800
C592        C  0.73046814  0.98064133  0.22242463    -0.26200
C593        C  0.72448330  0.94416095  0.26186201    -0.15400
C594        C  0.75046388  0.96046692  0.29834709     0.36900
N595        N  0.74110756  0.93811476  0.34315566    -0.89700
H596        H  0.80297908  0.01118897  0.32140608     0.18000
H597        H  0.70694786  0.98102317  0.19641426     0.18000
N598        N  0.76553695  0.05718514  0.17508033    -0.88700
H599        H  0.73311906  0.97486605  0.36312274     0.35400
H600        H  0.76930146  0.91840430  0.35594756     0.40500
H601        H  0.79526409  0.05399570  0.15725507     0.40100
H602        H  0.75883800  0.10181793  0.18290940     0.35000
C603        C  0.88370576  0.00121691  0.29160399    -0.26700
C604        C  0.86784745  0.06082137  0.28672848    -0.14800
C605        C  0.88219001  0.10301117  0.31930293     0.35800
C606        C  0.90885816  0.08321116  0.35460495    -0.26200
C607        C  0.92192779  0.02289405  0.35963429    -0.15400
C608        C  0.90950153  0.98201067  0.32672140     0.36900
N609        N  0.92311073  0.92013813  0.32809278    -0.89700
H610        H  0.87471046  0.96750234  0.26788990     0.18000
H611        H  0.91871818  0.11551111  0.37902040     0.18000
N612        N  0.87184904  0.16595573  0.31874632    -0.88700
H613        H  0.94065255  0.91132389  0.29825012     0.35400
H614        H  0.89509035  0.89293261  0.32960880     0.40500
H615        H  0.84056641  0.17276123  0.33265343     0.40100
H616        H  0.87643807  0.18590601  0.28694672     0.35000
C617        C  0.86694259  0.00212327  0.17930877    -0.26700
C618        C  0.87098915  0.05507360  0.20465052    -0.14800
C619        C  0.91044343  0.08853416  0.19772081     0.35800
C620        C  0.94149004  0.07248833  0.16477030    -0.26200
C621        C  0.93661384  0.02152482  0.13830387    -0.15400
C622        C  0.89874884  0.98539642  0.14652583     0.36900
N623        N  0.89190443  0.93070075  0.12324576    -0.89700
H624        H  0.83968156  0.97172486  0.18565963     0.18000
H625        H  0.97039183  0.10067001  0.16075133     0.18000
N626        N  0.91973835  0.13920328  0.22466598    -0.88700
H627        H  0.91810165  0.90160688  0.12921362     0.35400
H628        H  0.89083737  0.94081294  0.08887030     0.40500
H629        H  0.92543248  0.17691820  0.20356472     0.40100
H630        H  0.94859302  0.13018565  0.24151350     0.35000
C631        C  0.75843778  0.74497421  0.27432348    -0.26700
C632        C  0.72509728  0.70202404  0.27783561    -0.14800
C633        C  0.68121194  0.72107302  0.27665523     0.35800
C634        C  0.67197599  0.78266135  0.27256709    -0.26200
C635        C  0.70498443  0.82782824  0.27059062    -0.15400
C636        C  0.74973644  0.80684601  0.27098849     0.36900
N637        N  0.78794957  0.84434777  0.26736488    -0.89700
H638        H  0.79224843  0.72995903  0.27309586     0.18000
H639        H  0.63779023  0.79556499  0.27227942     0.18000
N640        N  0.64500686  0.67945865  0.27874819    -0.88700
H641        H  0.79356460  0.86461004  0.29766876     0.35400
H642        H  0.78802630  0.87436372  0.23994581     0.40500
H643        H  0.65520425  0.63491116  0.28320301     0.40100
H644        H  0.62969820  0.68226141  0.24791274     0.35000
C645        C  0.78748965  0.15143862  0.27388782    -0.26700
C646        C  0.81796298  0.13517566  0.23976148    -0.14800
C647        C  0.82244729  0.17593178  0.20171229     0.35800
C648        C  0.80283129  0.23333523  0.20297499    -0.26200
C649        C  0.77629219  0.25038533  0.23959960    -0.15400
C650        C  0.76688874  0.20744525  0.27424491     0.36900
N651        N  0.73663353  0.22042631  0.31052774    -0.89700
H652        H  0.78040821  0.12074912  0.30198832     0.18000
H653        H  0.80860011  0.26478793  0.17499125     0.18000
N654        N  0.84359798  0.15896046  0.16035240    -0.88700
H655        H  0.75317460  0.21619542  0.34060153     0.35400
H656        H  0.71169739  0.18808005  0.31114364     0.40500
H657        H  0.86796928  0.19072004  0.15184682     0.40100
H658        H  0.82054627  0.16114048  0.13520932     0.35000
C659        C  0.83597673  0.56010996  0.42060714    -0.26700
C660        C  0.84975928  0.51049680  0.39562143    -0.14800
C661        C  0.88750287  0.47932642  0.40908473     0.35800
C662        C  0.90970109  0.49775229  0.44642384    -0.26200
C663        C  0.89754855  0.54901324  0.47201155    -0.15400
C664        C  0.85823500  0.57923491  0.45840016     0.36900
N665        N  0.83848256  0.62846666  0.48201067    -0.89700
H666        H  0.80628583  0.58359667  0.41163981     0.18000
H667        H  0.93577103  0.46780761  0.45584911     0.18000
N668        N  0.90465556  0.42813972  0.38588532    -0.88700
H669        H  0.83808575  0.66585377  0.45995236     0.35400
H670        H  0.85662886  0.64119671  0.50877488     0.40500
H671        H  0.90938725  0.43964291  0.35184174     0.40100
H672        H  0.88273173  0.39213019  0.38991456     0.35000
C673        C  0.86919941  0.49361580  0.05855381    -0.26700
C674        C  0.88964956  0.55121511  0.05589800    -0.14800
C675        C  0.87436346  0.59433064  0.08793299     0.35800
C676        C  0.84451509  0.57714217  0.12228017    -0.26200
C677        C  0.82589732  0.51978463  0.12507512    -0.15400
C678        C  0.83838286  0.47716471  0.09299787     0.36900
N679        N  0.81849948  0.41840358  0.09422297    -0.89700
H680        H  0.87825531  0.46041120  0.03391329     0.18000
H681        H  0.83397471  0.61079437  0.14611742     0.18000
N682        N  0.88581605  0.65694835  0.08516727    -0.88700
H683        H  0.82985597  0.39337200  0.06695880     0.35400
H684        H  0.82894179  0.39558661  0.12304400     0.40500
H685        H  0.89974974  0.66860727  0.11534499     0.40100
H686        H  0.85718275  0.68229597  0.08188502     0.35000
C687        C  0.98244723  0.71142776  0.05295967    -0.26700
C688        C  0.97157011  0.75221023  0.01879181    -0.14800
C689        C  0.94856742  0.73133776  0.98209219     0.35800
C690        C  0.93592974  0.67086737  0.98054191    -0.26200
C691        C  0.94296567  0.62970083  0.01640961    -0.15400
C692        C  0.97020415  0.65047934  0.05155578     0.36900
N693        N  0.48579769  0.61183859  0.08681287    -0.89700
H694        H  0.50229017  0.72640514  0.08003368     0.18000
H695        H  0.92036674  0.65714158  0.95054208     0.18000
N696        N  0.93753251  0.77194363  0.94604733    -0.89900
H697        H  0.50860838  0.58157826  0.07356685     0.35400
H698        H  0.95988038  0.58874786  0.10306671     0.40500
H699        H  0.90347883  0.77172885  0.94341775     0.40100
H700        H  0.95141027  0.75558636  0.91621742     0.35000
C701        C  0.50763114  0.43418677  0.03691550    -0.26700
C702        C  0.53738019  0.44165697  0.99959958    -0.14800
C703        C  0.53280058  0.49616134  0.47334127     0.35800
C704        C  0.49701698  0.53385645  0.48151061    -0.26200
C705        C  0.96529836  0.52313928  0.01645286    -0.15400
C706        C  0.97387170  0.47488242  0.04692925     0.36900
N707        N  0.95127148  0.46832129  0.08959132    -0.89700
H708        H  0.51189323  0.39670543  0.06025995     0.18000
H709        H  0.99314060  0.57219342  0.45873394     0.18000
N710        N  0.56391874  0.51877791  0.43998910    -0.88700
H711        H  0.97423194  0.47165291  0.11466118     0.35400
H712        H  0.93775166  0.42499083  0.09207565     0.40500
H713        H  0.59542070  0.52157880  0.45216334     0.40100
H714        H  0.56228440  0.49574212  0.41016651     0.35000
C715        C  0.63462706  0.41208712  0.37955661    -0.26700
C716        C  0.67610472  0.43330938  0.39001865    -0.14800
C717        C  0.68691148  0.43826503  0.43501326     0.35800
C718        C  0.65583130  0.42466369  0.46869065    -0.26200
C719        C  0.61191404  0.40892974  0.45958569    -0.15400
C720        C  0.60268953  0.39838858  0.41368710     0.36900
N721        N  0.56173929  0.37208584  0.40172796    -0.89700
H722        H  0.62762653  0.40445371  0.34475090     0.18000
H723        H  0.66799220  0.42501863  0.50217535     0.18000
N724        N  0.72987155  0.45611394  0.44765881    -0.88700
H725        H  0.56110187  0.36546448  0.36715530     0.35400
H726        H  0.53641415  0.40199484  0.40934239     0.40500
H727        H  0.73708323  0.49820931  0.43265181     0.40100
H728        H  0.75270307  0.42481531  0.43570084     0.35000
C729        C  0.61074763  0.47108268  0.05125230    -0.26700
C730        C  0.59863768  0.41034034  0.04513975    -0.14800
C731        C  0.60619655  0.36896161  0.08164956     0.35800
C732        C  0.63241802  0.38700361  0.11717994    -0.26200
C733        C  0.64777312  0.44638665  0.11971205    -0.15400
C734        C  0.63517919  0.48913972  0.08687673     0.36900
N735        N  0.64859372  0.55105197  0.08801313    -0.89700
H736        H  0.60373069  0.50520079  0.02611744     0.18000
H737        H  0.63991743  0.35485126  0.14377002     0.18000
N738        N  0.58627556  0.31030076  0.08442741    -0.88700
H739        H  0.62048562  0.57796661  0.08868522     0.35400
H740        H  0.66669059  0.56155584  0.05844219     0.40500
H741        H  0.55249323  0.31622279  0.08873633     0.40100
H742        H  0.59635890  0.28589741  0.11270233     0.35000
C743        C  0.51305486  0.24503885  0.98338492    -0.26700
C744        C  0.54677244  0.20308242  0.98769588    -0.14800
C745        C  0.58997497  0.22377836  0.49203417     0.35800
C746        C  0.59794593  0.28583682  0.49425295    -0.26200
C747        C  0.56386284  0.32924065  0.99405147    -0.15400
C748        C  0.52094384  0.30738995  0.98509116     0.36900
N749        N  0.48525550  0.34699846  0.97562369    -0.89700
H750        H  0.97989705  0.22917115  0.97923364     0.18000
H751        H  0.63140526  0.30042065  0.49837795     0.18000
N752        N  0.62662401  0.18338367  0.49525249    -0.88700
H753        H  0.95962549  0.33739953  0.99889206     0.35400
H754        H  0.47424826  0.33779003  0.94366295     0.40500
H755        H  0.61737426  0.13849511  0.49180135     0.40100
H756        H  0.63895599  0.18705030  0.52737613     0.35000
C757        C  0.57731124  0.39692265  0.49899232    -0.02900
C758        C  0.92357734  0.56397223  0.51598727    -0.02900
O759        O  0.74859796  0.62420681  0.73154235    -0.81300
O760        O  0.76343279  0.35219828  0.71174176    -0.66000
O761        O  0.71899815  0.50793464  0.74177054    -1.12600
C762        C  0.82223488  0.48974205  0.85854724     1.05600
O763        O  0.75054934  0.33143025  0.78271476    -0.79200
O764        O  0.73847327  0.39814763  0.85312848    -0.66800
Ni765      Ni  0.71314832  0.57087462  0.69901704     1.34900
C766        C  0.71070275  0.44016404  0.85514945     0.84300
O767        O  0.69966628  0.42397933  0.67642703    -0.79800
O768        O  0.67789596  0.52011125  0.66458366    -0.90000
C769        C  0.76218143  0.31389533  0.74421611     0.83900
O770        O  0.76282049  0.55444776  0.66181053    -0.68200
O771        O  0.82321734  0.43370317  0.84960327    -0.87500
C772        C  0.78898769  0.51055960  0.65774294     0.84700
C773        C  0.67670978  0.46405033  0.65616672     1.06300
H774        H  0.80971220  0.45265841  0.75818520     0.38100
O775        O  0.78086012  0.44502872  0.77130824    -1.10200
O776        O  0.71313732  0.48806242  0.83096373    -0.66800
Ni777      Ni  0.75784188  0.52028600  0.78977066     1.26300
O778        O  0.78482613  0.46154272  0.68047405    -0.67100
O779        O  0.79765753  0.52799799  0.83847759    -0.79300
C780        C  0.73705232  0.63888825  0.77084649     0.84100
O781        O  0.73466836  0.59901871  0.80222292    -0.66500
Ni782      Ni  0.78745186  0.38287135  0.81482661     1.27400
Ni783      Ni  0.74098478  0.43174666  0.72376524     1.26100
H784        H  0.68984127  0.50095243  0.75441386     0.38600
C785        C  0.83845710  0.07096866  0.74452051    -0.02900
C786        C  0.68773364  0.89443197  0.76678263    -0.02900
O787        O  0.52694973  0.12198405  0.53618384    -0.81300
O788        O  0.98689810  0.85008866  0.54939758    -0.66000
O789        O  0.54418845  0.00151837  0.52204374    -1.12600
C790        C  0.94787108  0.00176112  0.89890977     1.05600
O791        O  0.00777894  0.83206023  0.98035812    -0.79200
O792        O  0.53195624  0.90393926  0.91243709    -0.66800
Ni793      Ni  0.55646990  0.05749334  0.56674847     1.34900
C794        C  0.55775032  0.94852138  0.90916928     0.84300
O795        O  0.55167293  0.90975460  0.59005525    -0.79800
O796        O  0.58692624  0.99721155  0.60087968    -0.90000
C797        C  0.98968431  0.81389198  0.51693719     0.83900
O798        O  0.00506801  0.04466700  0.60336486    -0.68200
O799        O  0.94874511  0.94481224  0.90588119    -0.87500
C800        C  0.97288505  0.00832339  0.60459929     0.84700
C801        C  0.57926189  0.94175747  0.61037036     1.06300
H802        H  0.95116505  0.95502504  0.49890283     0.38100
O803        O  0.98099111  0.94778918  0.98849734    -1.10200
O804        O  0.55166495  0.99657234  0.93081707    -0.66800
Ni805      Ni  0.50689777  0.02381740  0.97312413     1.26300
O806        O  0.97145358  0.96308167  0.57899687    -0.67100
O807        O  0.96813743  0.03933202  0.92323876    -0.79300
C808        C  0.53510637  0.13910045  0.49587219     0.84100
O809        O  0.53274775  0.10259182  0.96384891    -0.66500
Ni810      Ni  0.97800297  0.88917408  0.94403948     1.27400
Ni811      Ni  0.51559140  0.92732884  0.53918946     1.26100
H812        H  0.57245751  0.99063066  0.50928735     0.38600
C813        C  0.63887589  0.96831777  0.81048914    -0.26700
C814        C  0.65981168  0.91107655  0.81042865    -0.14800
C815        C  0.65364449  0.87446518  0.85082366     0.35800
C816        C  0.62111204  0.88949533  0.88261816    -0.26200
C817        C  0.59652401  0.94214119  0.87866329    -0.15400
C818        C  0.60695131  0.98343735  0.84329091     0.36900
N819        N  0.58381671  0.03919065  0.83821606    -0.89700
H820        H  0.64479670  0.99969466  0.78249617     0.18000
H821        H  0.61521368  0.85949077  0.91149170     0.18000
N822        N  0.68195722  0.82624580  0.86447082    -0.88700
H823        H  0.58840441  0.06455459  0.86676466     0.35400
H824        H  0.55041213  0.02971415  0.83616795     0.40500
H825        H  0.71436630  0.83143716  0.85319037     0.40100
H826        H  0.66830200  0.78432040  0.85813433     0.35000
C827        C  0.61141036  0.90420850  0.72915612    -0.26700
C828        C  0.65743267  0.89519375  0.72397994    -0.14800
C829        C  0.67306874  0.88467883  0.67854139     0.35800
C830        C  0.64572641  0.89625296  0.64225889    -0.26200
C831        C  0.60255063  0.91521317  0.64874405    -0.15400
C832        C  0.58450913  0.91637761  0.69281305     0.36900
N833        N  0.53947681  0.93208799  0.70235798    -0.89700
H834        H  0.59505571  0.90269562  0.76177822     0.18000
H835        H  0.65919358  0.89302080  0.60828043     0.18000
N836        N  0.71672835  0.86533741  0.66673831    -0.88700
H837        H  0.02440486  0.89493005  0.71874891     0.35400
H838        H  0.02232541  0.93995254  0.67313665     0.40500
H839        H  0.73576494  0.86026749  0.69441416     0.40100
H840        H  0.73173964  0.89905709  0.64646083     0.35000
C841        C  0.78572531  0.00041432  0.79169963    -0.26700
C842        C  0.79726458  0.02761348  0.74939233    -0.14800
C843        C  0.76561508  0.02114468  0.71567534     0.35800
C844        C  0.73048970  0.98079620  0.72248537    -0.26200
C845        C  0.72448592  0.94429923  0.76190794    -0.15400
C846        C  0.75046627  0.96057546  0.79840386     0.36900
N847        N  0.74106817  0.93825375  0.84321311    -0.89700
H848        H  0.80303874  0.01120223  0.82146652     0.18000
H849        H  0.70696733  0.98121240  0.69647555     0.18000
N850        N  0.76560984  0.05729716  0.67515117    -0.88700
H851        H  0.73311023  0.97502740  0.86316925     0.35400
H852        H  0.76923636  0.91849163  0.85602112     0.40500
H853        H  0.79533674  0.05408454  0.65732864     0.40100
H854        H  0.75892289  0.10193210  0.68298254     0.35000
C855        C  0.88376064  0.00122063  0.79169430    -0.26700
C856        C  0.86793466  0.06083559  0.78678651    -0.14800
C857        C  0.88229861  0.10304548  0.81934032     0.35800
C858        C  0.90892665  0.08324450  0.85467323    -0.26200
C859        C  0.92194355  0.02291471  0.85974645    -0.15400
C860        C  0.90951477  0.98201465  0.82684603     0.36900
N861        N  0.92308513  0.92012661  0.82826470    -0.89700
H862        H  0.87476350  0.96749886  0.76798633     0.18000
H863        H  0.91880239  0.11555654  0.87907334     0.18000
N864        N  0.87203603  0.16601640  0.81872285    -0.88700
H865        H  0.94064769  0.91126310  0.79844373     0.35400
H866        H  0.89504801  0.89295395  0.82977000     0.40500
H867        H  0.84077771  0.17292901  0.83265769     0.40100
H868        H  0.87662479  0.18591109  0.78690551     0.35000
C869        C  0.86698106  0.00209251  0.67936190    -0.26700
C870        C  0.87106198  0.05504341  0.70469850    -0.14800
C871        C  0.91052294  0.08847916  0.69773486     0.35800
C872        C  0.94152679  0.07243773  0.66474182    -0.26200
C873        C  0.93661556  0.02147947  0.63827980    -0.15400
C874        C  0.89875498  0.98535468  0.64654664     0.36900
N875        N  0.89188817  0.93064899  0.62328573    -0.89700
H876        H  0.83971574  0.97170797  0.68573778     0.18000
H877        H  0.97042685  0.10061716  0.66068829     0.18000
N878        N  0.91986771  0.13912636  0.72468107    -0.88700
H879        H  0.91809948  0.90156668  0.62922222     0.35400
H880        H  0.89077682  0.94074958  0.58891172     0.40500
H881        H  0.92555206  0.17684824  0.70358422     0.40100
H882        H  0.94873953  0.13008002  0.74149091     0.35000
C883        C  0.75845315  0.74509198  0.77419928    -0.26700
C884        C  0.72511700  0.70213364  0.77770684    -0.14800
C885        C  0.68123003  0.72118428  0.77655729     0.35800
C886        C  0.67198859  0.78277635  0.77249091    -0.26200
C887        C  0.70499147  0.82795164  0.77054651    -0.15400
C888        C  0.74974539  0.80696990  0.77093006     0.36900
N889        N  0.78795587  0.84448224  0.76739708    -0.89700
H890        H  0.79226493  0.73008283  0.77295859     0.18000
H891        H  0.63780174  0.79567658  0.77221321     0.18000
N892        N  0.64502668  0.67956801  0.77867106    -0.88700
H893        H  0.79351935  0.86469054  0.79773346     0.35400
H894        H  0.78806350  0.87454851  0.74000759     0.40500
H895        H  0.65522592  0.63502263  0.78313340     0.40100
H896        H  0.62970822  0.68235798  0.74784088     0.35000
C897        C  0.78763595  0.15147520  0.77397221    -0.26700
C898        C  0.81807924  0.13519893  0.73982366    -0.14800
C899        C  0.82255132  0.17595271  0.70177192     0.35800
C900        C  0.80291391  0.23334548  0.70303075    -0.26200
C901        C  0.77638099  0.25039477  0.73966299    -0.15400
C902        C  0.76702159  0.20746942  0.77432997     0.36900
N903        N  0.73679445  0.22044995  0.81063667    -0.89700
H904        H  0.78058428  0.12079938  0.80208818     0.18000
H905        H  0.80865976  0.26478990  0.67503759     0.18000
N906        N  0.84370953  0.15898813  0.66041411    -0.88700
H907        H  0.75336591  0.21625051  0.84069402     0.35400
H908        H  0.71186996  0.18808509  0.81128807     0.40500
H909        H  0.86807155  0.19076125  0.65190851     0.40100
H910        H  0.82065964  0.16115182  0.63526891     0.35000
C911        C  0.83598885  0.56036245  0.92052670    -0.26700
C912        C  0.84970241  0.51065548  0.89560340    -0.14800
C913        C  0.88739664  0.47940395  0.90910514     0.35800
C914        C  0.90962022  0.49784443  0.94641490    -0.26200
C915        C  0.89752338  0.54916315  0.97195969    -0.15400
C916        C  0.85826170  0.57947827  0.95831387     0.36900
N917        N  0.83857729  0.62879041  0.98188902    -0.89700
H918        H  0.80633697  0.58391845  0.91152427     0.18000
H919        H  0.93565282  0.46785080  0.95586566     0.18000
N920        N  0.90446754  0.42810370  0.88598412    -0.88700
H921        H  0.83827421  0.66617055  0.95981925     0.35400
H922        H  0.85670938  0.64145909  0.00868379     0.40500
H923        H  0.90921524  0.43949821  0.85192402     0.40100
H924        H  0.88249508  0.39215837  0.89007833     0.35000
C925        C  0.86939559  0.49344316  0.55870307    -0.26700
C926        C  0.88973824  0.55110840  0.55596156    -0.14800
C927        C  0.87441569  0.59424879  0.58796196     0.35800
C928        C  0.84457794  0.57706455  0.62231091    -0.26200
C929        C  0.82603997  0.51966323  0.62517282    -0.15400
C930        C  0.83865329  0.47695723  0.59320686     0.36900
N931        N  0.81900293  0.41804578  0.59462664    -0.89700
H932        H  0.87850929  0.46020725  0.53410516     0.18000
H933        H  0.83398252  0.61075213  0.64609686     0.18000
N934        N  0.88581274  0.65688585  0.58515455    -0.88700
H935        H  0.83046300  0.39293223  0.56744759     0.35400
H936        H  0.82954527  0.39548642  0.62351482     0.40500
H937        H  0.89974091  0.66860462  0.61532133     0.40100
H938        H  0.85715783  0.68218453  0.58186202     0.35000
C939        C  0.98242685  0.71140619  0.55294942    -0.26700
C940        C  0.97141495  0.75219804  0.51884271    -0.14800
C941        C  0.94829873  0.73134586  0.48221977     0.35800
C942        C  0.93577604  0.67083599  0.48062574    -0.26200
C943        C  0.94295779  0.62963530  0.51643470    -0.15400
C944        C  0.97021890  0.65044802  0.55155587     0.36900
N945        N  0.48582734  0.61183606  0.58681946    -0.89700
H946        H  0.50230860  0.72638550  0.57997720     0.18000
H947        H  0.92015454  0.65712318  0.45065725     0.18000
N948        N  0.93702155  0.77202254  0.44630732    -0.89900
H949        H  0.50864240  0.58157815  0.57357985     0.35400
H950        H  0.95994887  0.58876816  0.60310680     0.40500
H951        H  0.90295036  0.77169289  0.44384903     0.40100
H952        H  0.95079033  0.75580920  0.41638209     0.35000
C953        C  0.50772589  0.43419567  0.53702226    -0.26700
C954        C  0.53742288  0.44158912  0.49965482    -0.14800
C955        C  0.53278126  0.49626298  0.97332217     0.35800
C956        C  0.49698937  0.53393998  0.98148216    -0.26200
C957        C  0.96536873  0.52310283  0.51649271    -0.15400
C958        C  0.97399742  0.47492901  0.54702263     0.36900
N959        N  0.95149767  0.46849588  0.58974871    -0.89700
H960        H  0.51202125  0.39676331  0.56040547     0.18000
H961        H  0.99311067  0.57226963  0.95872979     0.18000
N962        N  0.56393176  0.51893329  0.94002033    -0.88700
H963        H  0.97451971  0.47192094  0.61475110     0.35400
H964        H  0.93799317  0.42516255  0.59234858     0.40500
H965        H  0.59541353  0.52175970  0.95224083     0.40100
H966        H  0.56236007  0.49590328  0.91019015     0.35000
C967        C  0.63458956  0.41214360  0.87950964    -0.26700
C968        C  0.67603672  0.43348135  0.88995473    -0.14800
C969        C  0.68683088  0.43856322  0.93494173     0.35800
C970        C  0.65577006  0.42493440  0.96863359    -0.26200
C971        C  0.61187657  0.40907295  0.95954292    -0.15400
C972        C  0.60265705  0.39847277  0.91364716     0.36900
N973        N  0.56170356  0.37217970  0.90169435    -0.89700
H974        H  0.62760185  0.40443136  0.84471139     0.18000
H975        H  0.66792804  0.42537826  0.00211573     0.18000
N976        N  0.72976774  0.45654889  0.94756357    -0.88700
H977        H  0.56109317  0.36544163  0.86713470     0.35400
H978        H  0.53640451  0.40216947  0.90921851     0.40500
H979        H  0.73692212  0.49863398  0.93251025     0.40100
H980        H  0.75263961  0.42528546  0.93563332     0.35000
C981        C  0.61081780  0.47095867  0.55123709    -0.26700
C982        C  0.59868719  0.41021800  0.54515788    -0.14800
C983        C  0.60626873  0.36884368  0.58166255     0.35800
C984        C  0.63247874  0.38691451  0.61719229    -0.26200
C985        C  0.64783317  0.44630247  0.61970138    -0.15400
C986        C  0.63525015  0.48903506  0.58684794     0.36900
N987        N  0.64867753  0.55094525  0.58794970    -0.89700
H988        H  0.60381263  0.50505900  0.52608246     0.18000
H989        H  0.63998522  0.35477537  0.64378884     0.18000
N990        N  0.58640554  0.31014584  0.58442073    -0.88700
H991        H  0.62057549  0.57787223  0.58860394     0.35400
H992        H  0.66677966  0.56141244  0.55837528     0.40500
H993        H  0.55261594  0.31600595  0.58872066     0.40100
H994        H  0.59650537  0.28575021  0.61269253     0.35000
C995        C  0.51297623  0.24499085  0.48349090    -0.26700
C996        C  0.54669357  0.20301253  0.48768336    -0.14800
C997        C  0.59003633  0.22388415  0.99212362     0.35800
C998        C  0.59798332  0.28595596  0.99429715    -0.26200
C999        C  0.56384054  0.32914718  0.49409400    -0.15400
C1000       C  0.52088817  0.30733225  0.48522684     0.36900
N1001       N  0.48517453  0.34696394  0.47591129    -0.89700
H1002       H  0.97978428  0.22919017  0.47939156     0.18000
H1003       H  0.63142723  0.30057404  0.99847225     0.18000
N1004       N  0.62668860  0.18351562  0.99546287    -0.88700
H1005       H  0.95960744  0.33740306  0.49917164     0.35400
H1006       H  0.47407412  0.33782806  0.44397475     0.40500
H1007       H  0.61745959  0.13861420  0.99203723     0.40100
H1008       H  0.63895114  0.18724819  0.02761108     0.35000
loop_ 
_geom_bond_atom_site_label_1 
_geom_bond_atom_site_label_2 
_geom_bond_distance 
_geom_bond_site_symmetry_2 
_ccdc_geom_bond_type 
C1          C198   1.571       .  S
C1          C226   1.577   1_556  S
C1          C243   1.571       .  S
C1          C467   1.571       .  S
C2          C170   1.572       .  S
C2          C187   1.573       .  S
C2          C201   1.567       .  S
C2          C411   1.597   1_554  S
O3           Ni9   1.908       .  S
O3           C24   1.263       .  A
O4          Ni27   1.931       .  S
O4           C13   1.272       .  A
O5           Ni9   1.879       .  S
O5          Ni27   1.902       .  S
O5          Ni21   1.914       .  S
O5           H28   0.966       .  S
C6           O23   1.284       .  A
C6           O15   1.278       .  A
C6          C156   1.492       .  S
O7          Ni26   1.901       .  S
O7           C13   1.261       .  A
O8          Ni26   1.888       .  S
O8           C10   1.262       .  A
Ni9          O12   1.901       .  S
Ni9          O14   1.890       .  S
C10          O20   1.270       .  A
C10         C212   1.462       .  S
O11         Ni27   1.935       .  S
O11          C17   1.284       .  A
O12          C17   1.276       .  A
C13         C145   1.483       .  S
O14          C16   1.266       .  A
O15         Ni26   1.917       .  S
C16          O22   1.271       .  A
C16         C173   1.477       .  S
C17         C229   1.483       .  S
H18          O19   0.965       .  S
O19         Ni27   1.927       .  S
O19         Ni21   1.899       .  S
O19         Ni26   1.885       .  S
O20         Ni21   1.931       .  S
Ni21         O25   1.925       .  S
Ni21         O23   1.936       .  S
O22         Ni27   1.933       .  S
C24          O25   1.271       .  A
C24         C128   1.467       .  S
C29          C86   1.584       .  S
C29         C100   1.584       .  S
C29         C114   1.571       .  S
C29         C142   1.560       .  S
C30          C58   1.583       .  S
C30          C72   1.601       .  S
C30          C89   1.576       .  S
C30         C131   1.569       .  S
O31         Ni37   1.919       .  S
O31          C52   1.268   1_554  A
O32        Ni559   1.937       .  S
O32          C41   1.274       .  A
O33         Ni37   1.891       .  S
O33         Ni55   1.913   1_545  S
O33        Ni301   1.938   1_554  S
O33          H56   0.965   1_545  S
C34          O51   1.290       .  A
C34          O43   1.276   1_545  A
C34         C103   1.498       .  S
O35         Ni54   1.898       .  S
O35         C293   1.261       .  A
O36        Ni558   1.895   1_455  S
O36          C38   1.264       .  A
Ni37         O40   1.920   1_545  S
Ni37        O546   1.898       .  S
C38          O48   1.271       .  A
C38          C61   1.478       .  S
O39         Ni55   1.935       .  S
O39          C45   1.279       .  A
O40          C45   1.275       .  A
C41         O287   1.261   1_554  A
C41         C184   1.477       .  S
O42        Ni541   1.898       .  S
O42          C44   1.270       .  A
O43         Ni54   1.902       .  S
C44          O50   1.278   1_545  A
C44         C117   1.504       .  S
C45          C75   1.477       .  S
H46         O299   0.967       .  S
O47         Ni54   1.884       .  S
O47        Ni811   1.921       .  S
O47        Ni553   1.902   1_565  S
O47         H298   0.967       .  S
O48         Ni49   1.937   1_565  S
Ni49         O53   1.927       .  S
Ni49        O555   1.956   1_455  S
Ni49        O285   1.938       .  S
Ni49        O551   1.902   1_445  S
O50        Ni559   1.948       .  S
O51        Ni553   1.955       .  S
C52         O305   1.273       .  A
C52         C240   1.474       .  S
O53         C304   1.273       .  A
Ni54        O540   1.895       .  S
Ni55        O536   1.937   1_455  S
Ni55        O554   1.948   1_455  S
Ni55        O803   1.921   1_454  S
C57          C58   1.422       .  A
C57          C62   1.405       .  A
C57          H64   1.084       .  S
C58          C59   1.443       .  A
C59          C60   1.396       .  A
C59          N66   1.436       .  S
C60          C61   1.394       .  A
C60          H65   1.085       .  S
C61          C62   1.408       .  A
C62          N63   1.432   1_565  S
N63          H67   1.045       .  S
N63          H68   1.046       .  S
N66          H69   1.040       .  S
N66          H70   1.043       .  S
C71          C72   1.424       .  A
C71          C76   1.402       .  A
C71          H78   1.078       .  S
C72          C73   1.446       .  A
C73          C74   1.407       .  A
C73          N80   1.436       .  S
C74          C75   1.393       .  A
C74          H79   1.084       .  S
C75          C76   1.408       .  A
C76          N77   1.440       .  S
N77         H585   1.045       .  S
N77         H586   1.043       .  S
N80          H83   1.029       .  S
N80          H84   1.046       .  S
H81         N581   1.045       .  S
H82         N581   1.043       .  S
C85          C86   1.418       .  A
C85          C90   1.399   1_545  A
C85          H92   1.080       .  S
C86          C87   1.427       .  A
C87          C88   1.403   1_545  A
C87          N94   1.433       .  S
C88          C89   1.417       .  A
C88          H93   1.074       .  S
C89          C90   1.421       .  A
C90          N91   1.433       .  S
N91          H95   1.046       .  S
N91          H96   1.045       .  S
N94          H97   1.040       .  S
N94          H98   1.042       .  S
C99         C100   1.414       .  A
C99         C104   1.390   1_545  A
C99         H106   1.084   1_545  S
C100        C101   1.444       .  A
C101        C102   1.414       .  A
C101        N108   1.432       .  S
C102        C103   1.403       .  A
C102        H107   1.084       .  S
C103        C104   1.414   1_545  A
C104        N105   1.435       .  S
N105        H109   1.046       .  S
N105        H110   1.046       .  S
N108        H111   1.041       .  S
N108        H112   1.041       .  S
C113        C114   1.420       .  A
C113        C118   1.411   1_545  A
C113        H120   1.080   1_545  S
C114        C115   1.422       .  A
C115        C116   1.395       .  A
C115        N122   1.432       .  S
C116        C117   1.406       .  A
C116        H121   1.083       .  S
C117        C118   1.418   1_545  A
C118        N119   1.432       .  S
N119        H123   1.045       .  S
N119        H124   1.045       .  S
N122        H125   1.045       .  S
N122        H126   1.046       .  S
C127        C128   1.394       .  A
C127        C132   1.400       .  A
C127        H134   1.085       .  S
C128        C129   1.407       .  A
C129        C130   1.399       .  A
C129        N136   1.439       .  S
C130        C131   1.420       .  A
C130        H135   1.083       .  S
C131        C132   1.445       .  A
C132        N133   1.433       .  S
N133        H137   1.038       .  S
N133        H138   1.041       .  S
N136        H139   1.043       .  S
N136        H140   1.046       .  S
C141        C142   1.410       .  A
C141        C146   1.393       .  A
C141        H148   1.082       .  S
C142        C143   1.436       .  A
C143        C144   1.409       .  A
C143        N150   1.432       .  S
C144        C145   1.398       .  A
C144        H149   1.084       .  S
C145        C146   1.410       .  A
C146        N147   1.434       .  S
N147        H151   1.046       .  S
N147        H152   1.046       .  S
N150        H153   1.045       .  S
N150        H154   1.046       .  S
C155        C156   1.402       .  A
C155        C160   1.409       .  A
C155        H162   1.084       .  S
C156        C157   1.409       .  A
C157        C158   1.392       .  A
C157        N164   1.435       .  S
C158        C159   1.428       .  A
C158        H163   1.077       .  S
C159        C254   1.597       .  S
C159        C160   1.441       .  A
C160        N161   1.436       .  S
N161        H165   1.046       .  S
N161        H166   1.032       .  S
N164        H167   1.045       .  S
N164        H168   1.044       .  S
C169        C170   1.421       .  A
C169        C174   1.411       .  A
C169        H176   1.083       .  S
C170        C171   1.436       .  A
C171        C172   1.394       .  A
C171        N178   1.432       .  S
C172        C173   1.393       .  A
C172        H177   1.085       .  S
C173        C174   1.405       .  A
C174        N175   1.437       .  S
N175        H179   1.046       .  S
N175        H180   1.045       .  S
N178        H181   1.046       .  S
N178        H182   1.046       .  S
C183        C184   1.394       .  A
C183        C188   1.405       .  A
C183        H694   1.084       .  S
C184        C185   1.408   1_554  A
C185        C186   1.398       .  A
C185        N192   1.434       .  S
C186        C187   1.411   1_556  A
C186        H191   1.077       .  S
C187        C188   1.444       .  A
C188        N693   1.434       .  S
N189        C692   1.434       .  S
N189        H193   1.043   1_655  S
N189        H698   1.041       .  S
H190        C687   1.084   1_455  S
N192        H195   1.046       .  S
N192        H196   1.046       .  S
H194        N693   1.041       .  S
C197        C198   1.419   1_554  A
C197        C706   1.401   1_455  A
C197        H204   1.082       .  S
C198        C451   1.436       .  A
C199        C200   1.395   1_455  A
C199        C450   1.436       .  A
C199        N206   1.434       .  S
C200        C957   1.414       .  A
C200        H709   1.084       .  S
C201        C202   1.417       .  A
C201        C956   1.414   1_554  A
C202        C701   1.401       .  A
C202        N203   1.431       .  S
N203        H207   1.046       .  S
N203        H208   1.046       .  S
H205        C704   1.084       .  S
N206        H209   1.042       .  S
N206        H210   1.039       .  S
C211        C212   1.399       .  A
C211        C216   1.413       .  A
C211        H218   1.084       .  S
C212        C213   1.399       .  A
C213        C214   1.386       .  A
C213        N220   1.436       .  S
C214        C215   1.423       .  A
C214        H219   1.077       .  S
C215        C253   1.571       .  S
C215        C216   1.431       .  A
C216        N217   1.439       .  S
N217        H221   1.045       .  S
N217        H222   1.042       .  S
N220        H223   1.046       .  S
N220        H224   1.045       .  S
C225        C226   1.415       .  A
C225        C230   1.385       .  A
C225        H232   1.078       .  S
C226        C227   1.431       .  A
C227        C228   1.415       .  A
C227        N234   1.436       .  S
C228        C229   1.403       .  A
C228        H233   1.083       .  S
C229        C230   1.409       .  A
C230        N231   1.435       .  S
N231        H235   1.046       .  S
N231        H236   1.046       .  S
N234        H237   1.044       .  S
N234        H238   1.045       .  S
C239        C240   1.396       .  A
C239        C244   1.407       .  A
C239        H750   1.084   1_455  S
C240        C493   1.411       .  A
C241        C242   1.402       .  A
C241        C492   1.411       .  A
C241        N248   1.439       .  S
C242        C495   1.418       .  A
C242        H247   1.084       .  S
C243        C244   1.433       .  A
C243        C494   1.418       .  A
C244        N245   1.432   1_455  S
N245        H250   1.046       .  S
N245        H753   1.046       .  S
H246        C743   1.084       .  S
N248        H251   1.044       .  S
N248        H252   1.046       .  S
H249        N749   1.046       .  S
C253        C450   1.571       .  S
C253        C478   1.577       .  S
C253        C495   1.571       .  S
C254        C422   1.572       .  S
C254        C439   1.573       .  S
C254        C453   1.567       .  S
O255       Ni261   1.908       .  S
O255        C276   1.263       .  A
O256       Ni279   1.931       .  S
O256        C265   1.272       .  A
O257       Ni261   1.880       .  S
O257       Ni279   1.902       .  S
O257       Ni273   1.914       .  S
O257        H280   0.966       .  S
C258        O275   1.283       .  A
C258        O267   1.278       .  A
C258        C408   1.492       .  S
O259       Ni278   1.901       .  S
O259        C265   1.261       .  A
O260       Ni278   1.887       .  S
O260        C262   1.262       .  A
Ni261       O264   1.901       .  S
Ni261       O266   1.890       .  S
C262        O272   1.270       .  A
C262        C464   1.462       .  S
O263       Ni279   1.935       .  S
O263        C269   1.284       .  A
O264        C269   1.276       .  A
C265        C397   1.483       .  S
O266        C268   1.266       .  A
O267       Ni278   1.917       .  S
C268        O274   1.271       .  A
C268        C425   1.477       .  S
C269        C481   1.483       .  S
H270        O271   0.965       .  S
O271       Ni279   1.927       .  S
O271       Ni273   1.899       .  S
O271       Ni278   1.885       .  S
O272       Ni273   1.930       .  S
Ni273       O277   1.925       .  S
Ni273       O275   1.936       .  S
O274       Ni279   1.933       .  S
C276        O277   1.271       .  A
C276        C380   1.468       .  S
C281        C338   1.584       .  S
C281        C352   1.584       .  S
C281        C366   1.571       .  S
C281        C394   1.560       .  S
C282        C310   1.583       .  S
C282        C324   1.601       .  S
C282        C341   1.577       .  S
C282        C383   1.569       .  S
O283       Ni289   1.919       .  S
O283        C304   1.268       .  A
O284       Ni811   1.937       .  S
O284        C293   1.274       .  A
O285       Ni289   1.891       .  S
O285       Ni307   1.913   1_545  S
O285        H308   0.965   1_545  S
C286        O303   1.290       .  A
C286        O295   1.276   1_545  A
C286        C355   1.498       .  S
O287       Ni306   1.898       .  S
O288       Ni810   1.895   1_455  S
O288        C290   1.264       .  A
Ni289       O292   1.920   1_545  S
Ni289       O798   1.899       .  S
C290        O300   1.271       .  A
C290        C313   1.478       .  S
O291       Ni307   1.936       .  S
O291        C297   1.279       .  A
O292        C297   1.275       .  A
C293        C436   1.477       .  S
O294       Ni793   1.899       .  S
O294        C296   1.270       .  A
O295       Ni306   1.901       .  S
C296        O302   1.278   1_545  A
C296        C369   1.504       .  S
C297        C327   1.477       .  S
O299       Ni559   1.921   1_556  S
O299       Ni805   1.902   1_565  S
O299       Ni306   1.884       .  S
O300       Ni301   1.936   1_565  S
Ni301       O305   1.927       .  S
Ni301       O807   1.956   1_455  S
Ni301       O803   1.902   1_445  S
O302       Ni811   1.948       .  S
O303       Ni805   1.956       .  S
C304        C492   1.474       .  S
Ni306       O792   1.895       .  S
Ni307       O788   1.937   1_455  S
Ni307       O806   1.948   1_455  S
Ni307       O551   1.921   1_455  S
C309        C310   1.422       .  A
C309        C314   1.404       .  A
C309        H316   1.084       .  S
C310        C311   1.443       .  A
C311        C312   1.396       .  A
C311        N318   1.436       .  S
C312        C313   1.394       .  A
C312        H317   1.085       .  S
C313        C314   1.408       .  A
C314        N315   1.432   1_565  S
N315        H319   1.045       .  S
N315        H320   1.046       .  S
N318        H321   1.040       .  S
N318        H322   1.043       .  S
C323        C324   1.424       .  A
C323        C328   1.402       .  A
C323        H330   1.078       .  S
C324        C325   1.446       .  A
C325        C326   1.407       .  A
C325        N332   1.436       .  S
C326        C327   1.393       .  A
C326        H331   1.084       .  S
C327        C328   1.408       .  A
C328        N329   1.440       .  S
N329        H837   1.045       .  S
N329        H838   1.043       .  S
N332        H335   1.029       .  S
N332        H336   1.046       .  S
H333        N833   1.045       .  S
H334        N833   1.043       .  S
C337        C338   1.418       .  A
C337        C342   1.399   1_545  A
C337        H344   1.080       .  S
C338        C339   1.427       .  A
C339        C340   1.403   1_545  A
C339        N346   1.433       .  S
C340        C341   1.417       .  A
C340        H345   1.074       .  S
C341        C342   1.422       .  A
C342        N343   1.433       .  S
N343        H347   1.046       .  S
N343        H348   1.045       .  S
N346        H349   1.040       .  S
N346        H350   1.042       .  S
C351        C352   1.414       .  A
C351        C356   1.390   1_545  A
C351        H358   1.084   1_545  S
C352        C353   1.444       .  A
C353        C354   1.414       .  A
C353        N360   1.432       .  S
C354        C355   1.403       .  A
C354        H359   1.084       .  S
C355        C356   1.414   1_545  A
C356        N357   1.435       .  S
N357        H361   1.046       .  S
N357        H362   1.046       .  S
N360        H363   1.041       .  S
N360        H364   1.041       .  S
C365        C366   1.420       .  A
C365        C370   1.411   1_545  A
C365        H372   1.080   1_545  S
C366        C367   1.422       .  A
C367        C368   1.395       .  A
C367        N374   1.432       .  S
C368        C369   1.406       .  A
C368        H373   1.083       .  S
C369        C370   1.418   1_545  A
C370        N371   1.432       .  S
N371        H375   1.045       .  S
N371        H376   1.045       .  S
N374        H377   1.045       .  S
N374        H378   1.046       .  S
C379        C380   1.394       .  A
C379        C384   1.400       .  A
C379        H386   1.085       .  S
C380        C381   1.407       .  A
C381        C382   1.399       .  A
C381        N388   1.439       .  S
C382        C383   1.420       .  A
C382        H387   1.083       .  S
C383        C384   1.445       .  A
C384        N385   1.433       .  S
N385        H389   1.038       .  S
N385        H390   1.041       .  S
N388        H391   1.043       .  S
N388        H392   1.046       .  S
C393        C394   1.410       .  A
C393        C398   1.393       .  A
C393        H400   1.082       .  S
C394        C395   1.436       .  A
C395        C396   1.409       .  A
C395        N402   1.432       .  S
C396        C397   1.398       .  A
C396        H401   1.084       .  S
C397        C398   1.410       .  A
C398        N399   1.434       .  S
N399        H403   1.046       .  S
N399        H404   1.046       .  S
N402        H405   1.045       .  S
N402        H406   1.046       .  S
C407        C408   1.402       .  A
C407        C412   1.409       .  A
C407        H414   1.084       .  S
C408        C409   1.409       .  A
C409        C410   1.392       .  A
C409        N416   1.435       .  S
C410        C411   1.428       .  A
C410        H415   1.077       .  S
C411        C412   1.441       .  A
C412        N413   1.436       .  S
N413        H417   1.046       .  S
N413        H418   1.032   1_556  S
N416        H419   1.045       .  S
N416        H420   1.044       .  S
C421        C422   1.421       .  A
C421        C426   1.411       .  A
C421        H428   1.083       .  S
C422        C423   1.436       .  A
C423        C424   1.394       .  A
C423        N430   1.432       .  S
C424        C425   1.393       .  A
C424        H429   1.085       .  S
C425        C426   1.405       .  A
C426        N427   1.437       .  S
N427        H431   1.046       .  S
N427        H432   1.045       .  S
N430        H433   1.046       .  S
N430        H434   1.046       .  S
C435        C436   1.394       .  A
C435        C440   1.405       .  A
C435        H946   1.084       .  S
C436        C437   1.407       .  A
C437        C438   1.398       .  A
C437        N444   1.434       .  S
C438        C439   1.411       .  A
C438        H443   1.077       .  S
C439        C440   1.444       .  A
C440        N945   1.434       .  S
N441        C944   1.434       .  S
N441        H445   1.043   1_655  S
N441        H950   1.041       .  S
H442        C939   1.084   1_455  S
N444        H447   1.046       .  S
N444        H448   1.046       .  S
H446        N945   1.041       .  S
C449        C450   1.419       .  A
C449        C958   1.401   1_455  A
C449        H456   1.082       .  S
C451        C452   1.395   1_455  A
C451        N458   1.434       .  S
C452        C705   1.414   1_556  A
C452        H961   1.084       .  S
C453        C704   1.414       .  A
C453        C454   1.417       .  A
C454        C953   1.401       .  A
C454        N455   1.431       .  S
N455        H459   1.046       .  S
N455        H460   1.046       .  S
H457        C956   1.084       .  S
N458        H461   1.042       .  S
N458        H462   1.039       .  S
C463        C464   1.399       .  A
C463        C468   1.413       .  A
C463        H470   1.084       .  S
C464        C465   1.399       .  A
C465        C466   1.386       .  A
C465        N472   1.436       .  S
C466        C467   1.422       .  A
C466        H471   1.077   1_556  S
C467        C468   1.431       .  A
C468        N469   1.439       .  S
N469        H473   1.045       .  S
N469        H474   1.042       .  S
N472        H475   1.046       .  S
N472        H476   1.045       .  S
C477        C478   1.415       .  A
C477        C482   1.385       .  A
C477        H484   1.078       .  S
C478        C479   1.431       .  A
C479        C480   1.415       .  A
C479        N486   1.436       .  S
C480        C481   1.403       .  A
C480        H485   1.083       .  S
C481        C482   1.409       .  A
C482        N483   1.435       .  S
N483        H487   1.046       .  S
N483        H488   1.046       .  S
N486        H489   1.044       .  S
N486        H490   1.045       .  S
C491        C492   1.396       .  A
C491        C496   1.407       .  A
C491       H1002   1.084   1_455  S
C493        C494   1.402       .  A
C493        N500   1.439       .  S
C494        H499   1.084       .  S
C495        C496   1.433       .  A
C496        N497   1.432   1_455  S
N497       H1005   1.046       .  S
N497        H502   1.046       .  S
H498        C995   1.084       .  S
N500        H503   1.044       .  S
N500        H504   1.046   1_556  S
H501       N1001   1.046       .  S
C505        C702   1.571       .  S
C505        C971   1.571       .  S
C505        C730   1.577   1_556  S
C505        C747   1.571       .  S
C506        C915   1.597   1_554  S
C506        C674   1.572       .  S
C506        C691   1.573       .  S
C506        C705   1.567       .  S
O507       Ni513   1.908       .  S
O507        C528   1.263       .  A
O508       Ni531   1.931       .  S
O508        C517   1.272       .  A
O509       Ni513   1.879       .  S
O509       Ni531   1.902       .  S
O509       Ni525   1.914       .  S
O509        H532   0.966       .  S
C510        O527   1.284       .  A
C510        O519   1.278       .  A
C510        C660   1.492       .  S
O511       Ni530   1.901       .  S
O511        C517   1.261       .  A
O512       Ni530   1.888       .  S
O512        C514   1.262       .  A
Ni513       O516   1.901       .  S
Ni513       O518   1.890       .  S
C514        O524   1.270       .  A
C514        C716   1.462       .  S
O515       Ni531   1.935       .  S
O515        C521   1.284       .  A
O516        C521   1.276       .  A
C517        C649   1.482       .  S
O518        C520   1.266       .  A
O519       Ni530   1.917       .  S
C520        O526   1.271       .  A
C520        C677   1.477       .  S
C521        C733   1.483       .  S
H522        O523   0.965       .  S
O523       Ni531   1.928       .  S
O523       Ni525   1.899       .  S
O523       Ni530   1.885       .  S
O524       Ni525   1.931       .  S
Ni525       O529   1.925       .  S
Ni525       O527   1.936       .  S
O526       Ni531   1.933       .  S
C528        O529   1.271       .  A
C528        C632   1.467       .  S
C533        C590   1.584       .  S
C533        C604   1.584       .  S
C533        C618   1.571       .  S
C533        C646   1.560       .  S
C534        C562   1.583       .  S
C534        C576   1.601       .  S
C534        C593   1.576       .  S
C534        C635   1.569       .  S
O535       Ni541   1.919       .  S
O535        C556   1.268   1_554  A
O536        C545   1.274       .  A
O537       Ni541   1.891       .  S
O537       Ni559   1.913   1_545  S
O537       Ni805   1.938   1_554  S
O537        H560   0.965   1_545  S
C538        O555   1.290       .  A
C538        O547   1.276   1_545  A
C538        C607   1.498       .  S
O539       Ni558   1.898   1_455  S
O539        C797   1.261   1_455  A
O540        C542   1.264       .  A
Ni541       O544   1.920   1_545  S
C542        O552   1.271       .  A
C542        C565   1.478       .  S
O543       Ni559   1.935       .  S
O543        C549   1.279       .  A
O544        C549   1.275       .  A
C545        O791   1.261   1_654  A
C545        C688   1.477       .  S
O546        C548   1.270   1_455  A
O547       Ni558   1.902       .  S
C548        O554   1.278   1_545  A
C548        C621   1.504       .  S
C549        C579   1.477       .  S
H550        O803   0.967       .  S
O551       Ni558   1.884       .  S
O551        H802   0.967       .  S
O552       Ni553   1.936   1_565  S
Ni553       O557   1.927       .  S
Ni553       O789   1.938       .  S
C556        O809   1.273       .  A
C556        C744   1.474       .  S
O557        C808   1.273       .  A
C561        C562   1.422       .  A
C561        C566   1.405       .  A
C561        H568   1.084       .  S
C562        C563   1.443       .  A
C563        C564   1.396       .  A
C563        N570   1.436       .  S
C564        C565   1.394       .  A
C564        H569   1.085       .  S
C565        C566   1.408       .  A
C566        N567   1.432   1_565  S
N567        H571   1.045       .  S
N567        H572   1.046       .  S
N570        H573   1.040       .  S
N570        H574   1.043       .  S
C575        C576   1.424       .  A
C575        C580   1.402       .  A
C575        H582   1.078       .  S
C576        C577   1.446       .  A
C577        C578   1.407       .  A
C577        N584   1.436       .  S
C578        C579   1.393       .  A
C578        H583   1.084       .  S
C579        C580   1.408       .  A
C580        N581   1.440       .  S
N584        H587   1.029       .  S
N584        H588   1.046       .  S
C589        C590   1.418       .  A
C589        C594   1.399   1_545  A
C589        H596   1.080       .  S
C590        C591   1.427       .  A
C591        C592   1.403   1_545  A
C591        N598   1.433       .  S
C592        C593   1.417       .  A
C592        H597   1.074       .  S
C593        C594   1.421       .  A
C594        N595   1.433       .  S
N595        H599   1.046       .  S
N595        H600   1.045       .  S
N598        H601   1.040       .  S
N598        H602   1.042       .  S
C603        C604   1.414       .  A
C603        C608   1.390   1_545  A
C603        H610   1.084   1_545  S
C604        C605   1.444       .  A
C605        C606   1.414       .  A
C605        N612   1.432       .  S
C606        C607   1.403       .  A
C606        H611   1.084       .  S
C607        C608   1.414   1_545  A
C608        N609   1.435       .  S
N609        H613   1.046       .  S
N609        H614   1.046       .  S
N612        H615   1.041       .  S
N612        H616   1.041       .  S
C617        C618   1.420       .  A
C617        C622   1.411   1_545  A
C617        H624   1.080   1_545  S
C618        C619   1.422       .  A
C619        C620   1.395       .  A
C619        N626   1.432       .  S
C620        C621   1.406       .  A
C620        H625   1.083       .  S
C621        C622   1.418   1_545  A
C622        N623   1.432       .  S
N623        H627   1.045       .  S
N623        H628   1.045       .  S
N626        H629   1.045       .  S
N626        H630   1.046       .  S
C631        C632   1.394       .  A
C631        C636   1.400       .  A
C631        H638   1.085       .  S
C632        C633   1.407       .  A
C633        C634   1.399       .  A
C633        N640   1.439       .  S
C634        C635   1.420       .  A
C634        H639   1.083       .  S
C635        C636   1.445       .  A
C636        N637   1.433       .  S
N637        H641   1.038       .  S
N637        H642   1.041       .  S
N640        H643   1.043       .  S
N640        H644   1.046       .  S
C645        C646   1.410       .  A
C645        C650   1.393       .  A
C645        H652   1.082       .  S
C646        C647   1.436       .  A
C647        C648   1.409       .  A
C647        N654   1.432       .  S
C648        C649   1.398       .  A
C648        H653   1.084       .  S
C649        C650   1.410       .  A
C650        N651   1.434       .  S
N651        H655   1.046       .  S
N651        H656   1.046       .  S
N654        H657   1.045       .  S
N654        H658   1.046       .  S
C659        C660   1.402       .  A
C659        C664   1.409       .  A
C659        H666   1.084       .  S
C660        C661   1.409       .  A
C661        C662   1.392       .  A
C661        N668   1.435       .  S
C662        C663   1.428       .  A
C662        H667   1.077       .  S
C663        C758   1.597       .  S
C663        C664   1.441       .  A
C664        N665   1.436       .  S
N665        H669   1.046       .  S
N665        H670   1.032       .  S
N668        H671   1.045       .  S
N668        H672   1.044       .  S
C673        C674   1.422       .  A
C673        C678   1.411       .  A
C673        H680   1.083       .  S
C674        C675   1.436       .  A
C675        C676   1.394       .  A
C675        N682   1.432       .  S
C676        C677   1.393       .  A
C676        H681   1.085       .  S
C677        C678   1.405       .  A
C678        N679   1.437       .  S
N679        H683   1.046       .  S
N679        H684   1.045       .  S
N682        H685   1.046       .  S
N682        H686   1.046       .  S
C687        C688   1.394       .  A
C687        C692   1.405       .  A
C688        C689   1.408   1_554  A
C689        C690   1.398       .  A
C689        N696   1.434       .  S
C690        C691   1.411   1_556  A
C690        H695   1.077       .  S
C691        C692   1.444       .  A
N693        H697   1.043       .  S
N696        H699   1.046       .  S
N696        H700   1.046       .  S
C701        C702   1.419   1_554  A
C701        H708   1.082       .  S
C702        C955   1.436       .  A
C703        C954   1.436       .  A
C703        C704   1.395       .  A
C703        N710   1.434       .  S
C705        C706   1.417       .  A
C706        N707   1.431       .  S
N707        H711   1.046       .  S
N707        H712   1.046       .  S
N710        H713   1.042       .  S
N710        H714   1.039       .  S
C715        C716   1.399       .  A
C715        C720   1.413       .  A
C715        H722   1.084       .  S
C716        C717   1.399       .  A
C717        C718   1.386       .  A
C717        N724   1.436       .  S
C718        C719   1.423       .  A
C718        H723   1.077       .  S
C719        C757   1.571       .  S
C719        C720   1.431       .  A
C720        N721   1.439       .  S
N721        H725   1.045       .  S
N721        H726   1.042       .  S
N724        H727   1.046       .  S
N724        H728   1.045       .  S
C729        C730   1.415       .  A
C729        C734   1.385       .  A
C729        H736   1.078       .  S
C730        C731   1.431       .  A
C731        C732   1.415       .  A
C731        N738   1.436       .  S
C732        C733   1.403       .  A
C732        H737   1.083       .  S
C733        C734   1.409       .  A
C734        N735   1.435       .  S
N735        H739   1.046       .  S
N735        H740   1.046       .  S
N738        H741   1.044       .  S
N738        H742   1.045       .  S
C743        C744   1.396       .  A
C743        C748   1.407       .  A
C744        C997   1.411       .  A
C745        C996   1.411       .  A
C745        C746   1.402       .  A
C745        N752   1.439       .  S
C746        C999   1.418       .  A
C746        H751   1.084       .  S
C747        C998   1.418       .  A
C747        C748   1.433       .  A
C748        N749   1.432       .  S
N749        H754   1.046       .  S
N752        H755   1.044       .  S
N752        H756   1.046       .  S
C757        C954   1.571       .  S
C757        C982   1.577       .  S
C757        C999   1.571       .  S
C758        C926   1.572       .  S
C758        C943   1.573       .  S
C758        C957   1.566       .  S
O759       Ni765   1.908       .  S
O759        C780   1.263       .  A
O760       Ni783   1.931       .  S
O760        C769   1.272       .  A
O761       Ni765   1.880       .  S
O761       Ni783   1.902       .  S
O761       Ni777   1.914       .  S
O761        H784   0.966       .  S
C762        O779   1.283       .  A
C762        O771   1.278       .  A
C762        C912   1.492       .  S
O763       Ni782   1.901       .  S
O763        C769   1.261       .  A
O764       Ni782   1.887       .  S
O764        C766   1.262       .  A
Ni765       O768   1.901       .  S
Ni765       O770   1.890       .  S
C766        O776   1.270       .  A
C766        C968   1.462       .  S
O767       Ni783   1.935       .  S
O767        C773   1.284       .  A
O768        C773   1.276       .  A
C769        C901   1.483       .  S
O770        C772   1.266       .  A
O771       Ni782   1.917       .  S
C772        O778   1.271       .  A
C772        C929   1.477       .  S
C773        C985   1.483       .  S
H774        O775   0.965       .  S
O775       Ni783   1.927       .  S
O775       Ni777   1.899       .  S
O775       Ni782   1.885       .  S
O776       Ni777   1.930       .  S
Ni777       O781   1.925       .  S
Ni777       O779   1.936       .  S
O778       Ni783   1.933       .  S
C780        O781   1.271       .  A
C780        C884   1.468       .  S
C785        C842   1.584       .  S
C785        C856   1.584       .  S
C785        C870   1.571       .  S
C785        C898   1.560       .  S
C786        C814   1.583       .  S
C786        C828   1.601       .  S
C786        C845   1.577       .  S
C786        C887   1.569       .  S
O787       Ni793   1.919       .  S
O787        C808   1.268       .  A
O788        C797   1.274       .  A
O789       Ni793   1.891       .  S
O789       Ni811   1.913   1_545  S
O789        H812   0.965   1_545  S
C790        O807   1.290       .  A
C790        O799   1.276   1_545  A
C790        C859   1.498       .  S
O791       Ni810   1.898   1_455  S
O792        C794   1.264       .  A
Ni793       O796   1.920   1_545  S
C794        O804   1.271       .  A
C794        C817   1.478       .  S
O795       Ni811   1.936       .  S
O795        C801   1.279       .  A
O796        C801   1.275       .  A
C797        C940   1.477       .  S
O798        C800   1.270   1_455  A
O799       Ni810   1.901       .  S
C800        O806   1.278   1_545  A
C800        C873   1.504       .  S
C801        C831   1.477       .  S
O803       Ni810   1.884       .  S
O804       Ni805   1.936   1_565  S
Ni805       O809   1.927       .  S
C808        C996   1.474       .  S
C813        C814   1.422       .  A
C813        C818   1.404       .  A
C813        H820   1.084       .  S
C814        C815   1.443       .  A
C815        C816   1.396       .  A
C815        N822   1.436       .  S
C816        C817   1.394       .  A
C816        H821   1.085       .  S
C817        C818   1.408       .  A
C818        N819   1.432   1_565  S
N819        H823   1.045       .  S
N819        H824   1.046       .  S
N822        H825   1.040       .  S
N822        H826   1.043       .  S
C827        C828   1.424       .  A
C827        C832   1.402       .  A
C827        H834   1.078       .  S
C828        C829   1.446       .  A
C829        C830   1.407       .  A
C829        N836   1.436       .  S
C830        C831   1.393       .  A
C830        H835   1.084       .  S
C831        C832   1.408       .  A
C832        N833   1.440       .  S
N836        H839   1.029       .  S
N836        H840   1.046       .  S
C841        C842   1.418       .  A
C841        C846   1.399   1_545  A
C841        H848   1.080       .  S
C842        C843   1.427       .  A
C843        C844   1.403   1_545  A
C843        N850   1.433       .  S
C844        C845   1.417       .  A
C844        H849   1.074       .  S
C845        C846   1.422       .  A
C846        N847   1.433       .  S
N847        H851   1.046       .  S
N847        H852   1.045       .  S
N850        H853   1.040       .  S
N850        H854   1.042       .  S
C855        C856   1.414       .  A
C855        C860   1.390   1_545  A
C855        H862   1.084   1_545  S
C856        C857   1.444       .  A
C857        C858   1.414       .  A
C857        N864   1.432       .  S
C858        C859   1.403       .  A
C858        H863   1.084       .  S
C859        C860   1.414   1_545  A
C860        N861   1.435       .  S
N861        H865   1.046       .  S
N861        H866   1.046       .  S
N864        H867   1.041       .  S
N864        H868   1.041       .  S
C869        C870   1.420       .  A
C869        C874   1.411   1_545  A
C869        H876   1.080   1_545  S
C870        C871   1.422       .  A
C871        C872   1.395       .  A
C871        N878   1.432       .  S
C872        C873   1.406       .  A
C872        H877   1.083       .  S
C873        C874   1.418   1_545  A
C874        N875   1.432       .  S
N875        H879   1.045       .  S
N875        H880   1.045       .  S
N878        H881   1.045       .  S
N878        H882   1.046       .  S
C883        C884   1.394       .  A
C883        C888   1.400       .  A
C883        H890   1.085       .  S
C884        C885   1.407       .  A
C885        C886   1.399       .  A
C885        N892   1.439       .  S
C886        C887   1.420       .  A
C886        H891   1.083       .  S
C887        C888   1.445       .  A
C888        N889   1.433       .  S
N889        H893   1.038       .  S
N889        H894   1.041       .  S
N892        H895   1.043       .  S
N892        H896   1.046       .  S
C897        C898   1.410       .  A
C897        C902   1.393       .  A
C897        H904   1.082       .  S
C898        C899   1.436       .  A
C899        C900   1.409       .  A
C899        N906   1.432       .  S
C900        C901   1.398       .  A
C900        H905   1.084       .  S
C901        C902   1.410       .  A
C902        N903   1.434       .  S
N903        H907   1.046       .  S
N903        H908   1.046       .  S
N906        H909   1.045       .  S
N906        H910   1.046       .  S
C911        C912   1.402       .  A
C911        C916   1.409       .  A
C911        H918   1.084       .  S
C912        C913   1.409       .  A
C913        C914   1.392       .  A
C913        N920   1.435       .  S
C914        C915   1.428       .  A
C914        H919   1.077       .  S
C915        C916   1.441       .  A
C916        N917   1.436       .  S
N917        H921   1.046       .  S
N917        H922   1.032   1_556  S
N920        H923   1.045       .  S
N920        H924   1.044       .  S
C925        C926   1.421       .  A
C925        C930   1.411       .  A
C925        H932   1.083       .  S
C926        C927   1.436       .  A
C927        C928   1.394       .  A
C927        N934   1.432       .  S
C928        C929   1.393       .  A
C928        H933   1.085       .  S
C929        C930   1.405       .  A
C930        N931   1.437       .  S
N931        H935   1.046       .  S
N931        H936   1.045       .  S
N934        H937   1.046       .  S
N934        H938   1.046       .  S
C939        C940   1.394       .  A
C939        C944   1.405       .  A
C940        C941   1.407       .  A
C941        C942   1.398       .  A
C941        N948   1.434       .  S
C942        C943   1.411       .  A
C942        H947   1.077       .  S
C943        C944   1.444       .  A
N945        H949   1.043       .  S
N948        H951   1.046       .  S
N948        H952   1.046       .  S
C953        C954   1.419       .  A
C953        H960   1.082       .  S
C955        C956   1.395       .  A
C955        N962   1.434       .  S
C957        C958   1.417       .  A
C958        N959   1.431       .  S
N959        H963   1.046       .  S
N959        H964   1.046       .  S
N962        H965   1.042       .  S
N962        H966   1.039       .  S
C967        C968   1.399       .  A
C967        C972   1.413       .  A
C967        H974   1.084       .  S
C968        C969   1.399       .  A
C969        C970   1.386       .  A
C969        N976   1.436       .  S
C970        C971   1.422       .  A
C970        H975   1.077   1_556  S
C971        C972   1.431       .  A
C972        N973   1.439       .  S
N973        H977   1.045       .  S
N973        H978   1.042       .  S
N976        H979   1.046       .  S
N976        H980   1.045       .  S
C981        C982   1.415       .  A
C981        C986   1.385       .  A
C981        H988   1.078       .  S
C982        C983   1.431       .  A
C983        C984   1.415       .  A
C983        N990   1.436       .  S
C984        C985   1.403       .  A
C984        H989   1.083       .  S
C985        C986   1.409       .  A
C986        N987   1.435       .  S
N987        H991   1.046       .  S
N987        H992   1.046       .  S
N990        H993   1.044       .  S
N990        H994   1.045       .  S
C995        C996   1.396       .  A
C995       C1000   1.407       .  A
C997        C998   1.402       .  A
C997       N1004   1.439       .  S
C998       H1003   1.084       .  S
C999       C1000   1.433       .  A
C1000      N1001   1.432       .  S
N1001      H1006   1.046       .  S
N1004      H1007   1.044       .  S
N1004      H1008   1.046   1_556  S
