geometry optimzed in LAMMPS
_audit_creation_date              2020-11-30 
_audit_creation_method            'lammps2cif' 
_symmetry_space_group_name_H-M    'P1' 
_symmetry_Int_Tables_number       1 
_symmetry_cell_setting            triclinic 
loop_ 
_symmetry_equiv_pos_as_xyz 
  x,y,z 
_cell_length_a                    27.71661627 
_cell_length_b                    29.27647455727506 
_cell_length_c                    29.76650289351738 
_cell_angle_alpha                 93.22608201468145 
_cell_angle_beta                  86.40029516244056 
_cell_angle_gamma                 89.9961157668647 
loop_ 
_atom_site_label 
_atom_site_type_symbol 
_atom_site_fract_x 
_atom_site_fract_y 
_atom_site_fract_z 
_atom_site_charge 
C1          C  0.09768461  0.00082610  0.35113296     0.02700
O2          O  0.20848007  0.03632201  0.13474404    -0.66600
O3          O  0.30471384  0.03774619  0.21907676    -0.66800
O4          O  0.30543757  0.03621433  0.12864799    -0.66600
O5          O  0.20788318  0.03569320  0.22506751    -0.66600
O6          O  0.20887944  0.46127934  0.22027764    -0.66600
O7          O  0.30664599  0.46181398  0.12577746    -0.66600
O8          O  0.30580635  0.46333728  0.21633250    -0.66600
O9          O  0.20959159  0.46190789  0.12983267    -0.66700
V10         V  0.25665218  0.03503043  0.17679748     1.35200
V11         V  0.25771187  0.46351230  0.17311835     1.35200
C12         C  0.19297875  0.49928135  0.11770205     0.82700
C13         C  0.32118280  0.50118590  0.23241023     0.82700
C14         C  0.32232283  0.49876444  0.11089807     0.82600
C15         C  0.19216697  0.49806379  0.23900446     0.82600
C16         C  0.41627116  0.50430892  0.99929243     0.02700
C17         C  0.01444612  0.09871274  0.98285646     0.02700
O18         O  0.04691941  0.29601699  0.11374428    -0.66600
O19         O  0.04963534  0.20476094  0.19821704    -0.66800
O20         O  0.04832676  0.20437944  0.10791312    -0.66600
O21         O  0.04585375  0.29652806  0.20414013    -0.66600
O22         O  0.46725268  0.29487351  0.20773870    -0.66600
O23         O  0.46972939  0.20257547  0.11352275    -0.66600
O24         O  0.47103522  0.20304118  0.20390367    -0.66600
O25         O  0.46830785  0.29427389  0.11724743    -0.66700
V26         V  0.04614260  0.25038220  0.15611743     1.35200
V27         V  0.47059424  0.24872181  0.16053894     1.35200
C28         C  0.00759665  0.31023727  0.10074021     0.82700
C29         C  0.01122338  0.18866229  0.21564124     0.82700
C30         C  0.00905426  0.18822385  0.09437519     0.82600
C31         C  0.00575953  0.31114313  0.22215829     0.82600
C32         C  0.00632379  0.40023474  0.33346311     0.02700
C33         C  0.00344456  0.34485645  0.25918185    -0.08000
C34         C  0.00178445  0.37116933  0.29195702    -0.09600
C35         C  0.00990812  0.36949455  0.03715681    -0.08000
C36         C  0.00832775  0.34320354  0.06694015    -0.09600
C37         C  0.01688892  0.12889243  0.27829525    -0.08000
C38         C  0.01392852  0.15530796  0.24889882    -0.09600
C39         C  0.00851947  0.15496339  0.05711701    -0.08000
C40         C  0.00824655  0.12869961  0.02440667    -0.09600
C41         C  0.45262568  0.46605585  0.98609296    -0.11200
C42         C  0.46199358  0.43064631  0.01106087    -0.26400
H43         H  0.47501579  0.46944697  0.95512456     0.17800
H44         H  0.44047572  0.42644462  0.37568963     0.18400
C45         C  0.47367737  0.06532753  0.97442073    -0.11200
C46         C  0.44370144  0.04885402  0.00679802    -0.26600
H47         H  0.47475073  0.04785897  0.27444537     0.17800
H48         H  0.44308355  0.06506302  0.04062035     0.18400
C49         C  0.35598252  0.50333753  0.26606598    -0.08000
C50         C  0.38371198  0.50610982  0.29570676    -0.09600
C51         C  0.35785187  0.49773591  0.07363315    -0.08000
C52         C  0.38561794  0.49762433  0.04072734    -0.09600
C53         C  0.05168475  0.42918586  0.99397980    -0.11200
C54         C  0.06311965  0.46135490  0.02547511    -0.26400
H55         H  0.07189052  0.42728969  0.29474950     0.17800
H56         H  0.04165712  0.46285109  0.05746253     0.18400
C57         C  0.06610045  0.04347404  0.01940174    -0.11200
C58         C  0.06010699  0.07033512  0.98433476    -0.26400
H59         H  0.04148283  0.04853683  0.04922632     0.17800
H60         H  0.08432128  0.06730956  0.28753042     0.18400
C61         C  0.12895404  0.49600774  0.30901321    -0.08000
C62         C  0.15681409  0.49665983  0.27622883    -0.09600
C63         C  0.12983794  0.50260944  0.05518153    -0.08000
C64         C  0.15781842  0.50038971  0.08443526    -0.09600
C65         C  0.09768456  0.00082604  0.68446620     0.02700
O66         O  0.20848002  0.03632211  0.46807752    -0.66600
O67         O  0.30471397  0.03774607  0.55241009    -0.66800
O68         O  0.30543755  0.03621441  0.46198145    -0.66600
O69         O  0.20788311  0.03569323  0.55840083    -0.66600
O70         O  0.20887948  0.46127932  0.55361109    -0.66600
O71         O  0.30664610  0.46181389  0.45911098    -0.66600
O72         O  0.30580640  0.46333736  0.54966595    -0.66600
O73         O  0.20959170  0.46190784  0.46316606    -0.66700
V74         V  0.25665219  0.03503047  0.51013088     1.35200
V75         V  0.25771194  0.46351230  0.50645180     1.35200
C76         C  0.19297870  0.49928127  0.45103549     0.82700
C77         C  0.32118291  0.50118600  0.56574357     0.82700
C78         C  0.32232286  0.49876430  0.44423143     0.82600
C79         C  0.19216681  0.49806374  0.57233780     0.82600
C80         C  0.41627111  0.50430891  0.33262582     0.02700
C81         C  0.01444592  0.09871273  0.31618972     0.02700
O82         O  0.04691926  0.29601690  0.44707756    -0.66600
O83         O  0.04963522  0.20476090  0.53155032    -0.66800
O84         O  0.04832661  0.20437940  0.44124632    -0.66600
O85         O  0.04585366  0.29652797  0.53747337    -0.66600
O86         O  0.46725279  0.29487339  0.54107196    -0.66600
O87         O  0.46972950  0.20257541  0.44685600    -0.66600
O88         O  0.47103534  0.20304110  0.53723696    -0.66600
O89         O  0.46830799  0.29427394  0.45058083    -0.66700
V90         V  0.04614246  0.25038212  0.48945067     1.35200
V91         V  0.47059435  0.24872174  0.49387222     1.35200
C92         C  0.00759647  0.31023728  0.43407364     0.82700
C93         C  0.01122328  0.18866228  0.54897461     0.82700
C94         C  0.00905409  0.18822387  0.42770836     0.82600
C95         C  0.00575943  0.31114298  0.55549160     0.82600
C96         C  0.00632377  0.40023478  0.66679639     0.02700
C97         C  0.00344441  0.34485632  0.59251518    -0.08000
C98         C  0.00178426  0.37116938  0.62529025    -0.09600
C99         C  0.00990805  0.36949456  0.37049031    -0.08000
C100        C  0.00832754  0.34320352  0.40027362    -0.09600
C101        C  0.01688899  0.12889250  0.61162871    -0.08000
C102        C  0.01392851  0.15530797  0.58223224    -0.09600
C103        C  0.00851925  0.15496346  0.39045019    -0.08000
C104        C  0.00824629  0.12869966  0.35773988    -0.09600
C105        C  0.45262577  0.46605595  0.31942625    -0.11200
C106        C  0.46199368  0.43064637  0.34439419    -0.26400
H107        H  0.47501572  0.46944713  0.28845802     0.17800
H108        H  0.44047566  0.42644455  0.70902319     0.18400
C109        C  0.47367749  0.06532754  0.30775416    -0.11200
C110        C  0.44370141  0.04885409  0.34013134    -0.26600
H111        H  0.47475055  0.04785921  0.60777881     0.17800
H112        H  0.44308352  0.06506328  0.37395394     0.18400
C113        C  0.35598270  0.50333762  0.59939924    -0.08000
C114        C  0.38371213  0.50610985  0.62904004    -0.09600
C115        C  0.35785195  0.49773566  0.40696656    -0.08000
C116        C  0.38561797  0.49762415  0.37406072    -0.09600
C117        C  0.05168467  0.42918580  0.32731329    -0.11200
C118        C  0.06311967  0.46135489  0.35880844    -0.26400
H119        H  0.07189031  0.42728982  0.62808309     0.17800
H120        H  0.04165711  0.46285119  0.39079594     0.18400
C121        C  0.06610030  0.04347405  0.35273507    -0.11200
C122        C  0.06010674  0.07033513  0.31766820    -0.26400
H123        H  0.04148243  0.04853683  0.38255989     0.17800
H124        H  0.08432101  0.06730955  0.62086402     0.18400
C125        C  0.12895390  0.49600780  0.64234662    -0.08000
C126        C  0.15681382  0.49665971  0.60956211    -0.09600
C127        C  0.12983794  0.50260942  0.38851487    -0.08000
C128        C  0.15781834  0.50038962  0.41776870    -0.09600
C129        C  0.09768469  0.00082602  0.01779954     0.02700
O130        O  0.20848013  0.03632203  0.80141073    -0.66600
O131        O  0.30471405  0.03774610  0.88574334    -0.66800
O132        O  0.30543756  0.03621438  0.79531469    -0.66600
O133        O  0.20788320  0.03569313  0.89173409    -0.66600
O134        O  0.20887957  0.46127926  0.88694442    -0.66600
O135        O  0.30664613  0.46181394  0.79244419    -0.66600
O136        O  0.30580652  0.46333741  0.88299918    -0.66600
O137        O  0.20959158  0.46190787  0.79649945    -0.66700
V138        V  0.25665226  0.03503040  0.84346414     1.35200
V139        V  0.25771197  0.46351231  0.83978507     1.35200
C140        C  0.19297870  0.49928132  0.78436881     0.82700
C141        C  0.32118293  0.50118605  0.89907687     0.82700
C142        C  0.32232290  0.49876437  0.77756469     0.82600
C143        C  0.19216693  0.49806368  0.90567118     0.82600
C144        C  0.41627124  0.50430893  0.66595911     0.02700
C145        C  0.01444602  0.09871279  0.64952319     0.02700
O146        O  0.04691926  0.29601702  0.78041094    -0.66600
O147        O  0.04963532  0.20476096  0.86488367    -0.66800
O148        O  0.04832663  0.20437945  0.77457973    -0.66600
O149        O  0.04585366  0.29652805  0.87080673    -0.66600
O150        O  0.46725282  0.29487346  0.87440531    -0.66600
O151        O  0.46972932  0.20257555  0.78018929    -0.66600
O152        O  0.47103530  0.20304119  0.87057030    -0.66600
O153        O  0.46830795  0.29427395  0.78391410    -0.66700
V154        V  0.04614250  0.25038220  0.82278404     1.35200
V155        V  0.47059429  0.24872183  0.82720555     1.35200
C156        C  0.00759650  0.31023734  0.76740692     0.82700
C157        C  0.01122339  0.18866227  0.88230789     0.82700
C158        C  0.00905412  0.18822395  0.76104173     0.82600
C159        C  0.00575944  0.31114299  0.88882500     0.82600
C160        C  0.00632382  0.40023478  0.00012968     0.02700
C161        C  0.00344443  0.34485632  0.92584857    -0.08000
C162        C  0.00178434  0.37116940  0.95862360    -0.09600
C163        C  0.00990814  0.36949457  0.70382351    -0.08000
C164        C  0.00832765  0.34320355  0.73360684    -0.09600
C165        C  0.01688910  0.12889247  0.94496200    -0.08000
C166        C  0.01392863  0.15530792  0.91556550    -0.09600
C167        C  0.00851936  0.15496356  0.72378357    -0.08000
C168        C  0.00824642  0.12869972  0.69107332    -0.09600
C169        C  0.45262584  0.46605592  0.65275961    -0.11200
C170        C  0.46199378  0.43064633  0.67772746    -0.26400
H171        H  0.47501587  0.46944707  0.62179125     0.17800
H172        H  0.44047561  0.42644458  0.04235633     0.18400
C173        C  0.47367745  0.06532764  0.64108753    -0.11200
C174        C  0.44370149  0.04885412  0.67346481    -0.26600
H175        H  0.47475057  0.04785911  0.94111211     0.17800
H176        H  0.44308372  0.06506303  0.70728707     0.18400
C177        C  0.35598266  0.50333770  0.93273262    -0.08000
C178        C  0.38371210  0.50610988  0.96237338    -0.09600
C179        C  0.35785205  0.49773577  0.74029985    -0.08000
C180        C  0.38561811  0.49762424  0.70739403    -0.09600
C181        C  0.05168469  0.42918588  0.66064652    -0.11200
C182        C  0.06311966  0.46135490  0.69214186    -0.26400
H183        H  0.07189038  0.42728984  0.96141637     0.17800
H184        H  0.04165723  0.46285114  0.72412922     0.18400
C185        C  0.06610037  0.04347412  0.68606849    -0.11200
C186        C  0.06010688  0.07033518  0.65100152    -0.26400
H187        H  0.04148279  0.04853694  0.71589313     0.17800
H188        H  0.08432118  0.06730954  0.95419731     0.18400
C189        C  0.12895392  0.49600781  0.97567993    -0.08000
C190        C  0.15681396  0.49665972  0.94289553    -0.09600
C191        C  0.12983789  0.50260953  0.72184828    -0.08000
C192        C  0.15781832  0.50038969  0.75110205    -0.09600
C193        C  0.09766910  0.50082573  0.35113417     0.02700
O194        O  0.20846470  0.53632164  0.13474533    -0.66600
O195        O  0.30469858  0.53774554  0.21907796    -0.66800
O196        O  0.30542227  0.53621370  0.12864930    -0.66600
O197        O  0.20786788  0.53569300  0.22506872    -0.66600
O198        O  0.20889496  0.96127955  0.22027627    -0.66600
O199        O  0.30666181  0.96181461  0.12577633    -0.66600
O200        O  0.30582197  0.96333792  0.21633122    -0.66600
O201        O  0.20960729  0.96190826  0.12983132    -0.66700
V202        V  0.25663686  0.53502996  0.17679872     1.35200
V203        V  0.25772752  0.96351277  0.17311706     1.35200
C204        C  0.19299430  0.99928168  0.11770073     0.82700
C205        C  0.32119826  0.00118661  0.23240895     0.82700
C206        C  0.32233839  0.99876512  0.11089686     0.82600
C207        C  0.19218230  0.99806392  0.23900312     0.82600
C208        C  0.41628655  0.00430941  0.99929117     0.02700
C209        C  0.01443033  0.59871258  0.98285794     0.02700
O210        O  0.04692556  0.79601258  0.11374396    -0.66600
O211        O  0.04962915  0.70475627  0.19821742    -0.66800
O212        O  0.04832052  0.70437483  0.10791355    -0.66600
O213        O  0.04585981  0.79652369  0.20413980    -0.66600
O214        O  0.46725838  0.79487859  0.20773871    -0.66600
O215        O  0.46972287  0.70258029  0.11352351    -0.66600
O216        O  0.47102866  0.70304593  0.20390449    -0.66600
O217        O  0.46831371  0.79427894  0.11724753    -0.66700
V218        V  0.04614254  0.75037785  0.15611745     1.35200
V219        V  0.47059386  0.74872655  0.16053932     1.35200
C220        C  0.00760468  0.81023767  0.10074015     0.82700
C221        C  0.01121504  0.68866239  0.21564218     0.82700
C222        C  0.00904587  0.68822386  0.09437599     0.82600
C223        C  0.00576748  0.81114341  0.22215815     0.82600
C224        C  0.00633892  0.90023527  0.33346268     0.02700
C225        C  0.00345678  0.84485672  0.25918168    -0.08000
C226        C  0.00179887  0.87116976  0.29195672    -0.09600
C227        C  0.00992268  0.86949517  0.03715672    -0.08000
C228        C  0.00834006  0.84320415  0.06694010    -0.09600
C229        C  0.01687402  0.62889245  0.27829696    -0.08000
C230        C  0.01391589  0.65530808  0.24890033    -0.09600
C231        C  0.00850686  0.65496323  0.05711832    -0.08000
C232        C  0.00823154  0.62869944  0.02440817    -0.09600
C233        C  0.45264107  0.96605623  0.98609199    -0.11200
C234        C  0.46200904  0.93064712  0.01106051    -0.26400
H235        H  0.47503092  0.96944682  0.95512361     0.17800
H236        H  0.44049106  0.92644597  0.37568967     0.18400
C237        C  0.47366143  0.56532776  0.97442212    -0.11200
C238        C  0.44368609  0.54885355  0.00679949    -0.26600
H239        H  0.47473390  0.54785980  0.27444656     0.17800
H240        H  0.44306883  0.56506203  0.04062208     0.18400
C241        C  0.35599806  0.00333828  0.26606461    -0.08000
C242        C  0.38372743  0.00611035  0.29570543    -0.09600
C243        C  0.35786741  0.99773666  0.07363196    -0.08000
C244        C  0.38563335  0.99762504  0.04072609    -0.09600
C245        C  0.05169997  0.92918599  0.99397912    -0.11200
C246        C  0.06313513  0.96135527  0.02547411    -0.26400
H247        H  0.07190567  0.92728961  0.29474901     0.17800
H248        H  0.04167267  0.96285180  0.05746157     0.18400
C249        C  0.06608460  0.54347367  0.01940309    -0.11200
C250        C  0.06009092  0.57033462  0.98433612    -0.26400
H251        H  0.04146691  0.54853652  0.04922789     0.17800
H252        H  0.08430510  0.56730889  0.28753176     0.18400
C253        C  0.12896932  0.99600782  0.30901187    -0.08000
C254        C  0.15682928  0.99665983  0.27622742    -0.09600
C255        C  0.12985365  0.00260977  0.05518012    -0.08000
C256        C  0.15783406  0.00038998  0.08443389    -0.09600
C257        C  0.09766901  0.50082582  0.68446760     0.02700
O258        O  0.20846463  0.53632157  0.46807874    -0.66600
O259        O  0.30469865  0.53774562  0.55241129    -0.66800
O260        O  0.30542219  0.53621360  0.46198249    -0.66600
O261        O  0.20786776  0.53569297  0.55840209    -0.66600
O262        O  0.20889498  0.96127957  0.55360951    -0.66600
O263        O  0.30666166  0.96181468  0.45910959    -0.66600
O264        O  0.30582190  0.96333781  0.54966454    -0.66600
O265        O  0.20960727  0.96190836  0.46316460    -0.66700
V266        V  0.25663685  0.53502996  0.51013207     1.35200
V267        V  0.25772747  0.96351279  0.50645034     1.35200
C268        C  0.19299422  0.99928181  0.45103415     0.82700
C269        C  0.32119828  0.00118646  0.56574230     0.82700
C270        C  0.32233833  0.99876521  0.44423027     0.82600
C271        C  0.19218229  0.99806392  0.57233639     0.82600
C272        C  0.41628643  0.00430952  0.33262458     0.02700
C273        C  0.01443043  0.59871257  0.31619130     0.02700
O274        O  0.04692547  0.79601269  0.44707736    -0.66600
O275        O  0.04962894  0.70475636  0.53155081    -0.66800
O276        O  0.04832053  0.70437490  0.44124688    -0.66600
O277        O  0.04585967  0.79652370  0.53747326    -0.66600
O278        O  0.46725848  0.79487847  0.54107219    -0.66600
O279        O  0.46972291  0.70258034  0.44685695    -0.66600
O280        O  0.47102877  0.70304599  0.53723793    -0.66600
O281        O  0.46831372  0.79427893  0.45058093    -0.66700
V282        V  0.04614244  0.75037793  0.48945083     1.35200
V283        V  0.47059393  0.74872655  0.49387276     1.35200
C284        C  0.00760463  0.81023772  0.43407342     0.82700
C285        C  0.01121481  0.68866244  0.54897549     0.82700
C286        C  0.00904590  0.68822389  0.42770934     0.82600
C287        C  0.00576731  0.81114336  0.55549157     0.82600
C288        C  0.00633871  0.90023525  0.66679602     0.02700
C289        C  0.00345651  0.84485665  0.59251512    -0.08000
C290        C  0.00179860  0.87116973  0.62529011    -0.09600
C291        C  0.00992280  0.86949522  0.37049001    -0.08000
C292        C  0.00834011  0.84320417  0.40027336    -0.09600
C293        C  0.01687380  0.62889233  0.61163015    -0.08000
C294        C  0.01391562  0.65530803  0.58223357    -0.09600
C295        C  0.00850685  0.65496332  0.39045162    -0.08000
C296        C  0.00823162  0.62869945  0.35774153    -0.09600
C297        C  0.45264090  0.96605635  0.31942547    -0.11200
C298        C  0.46200894  0.93064723  0.34439383    -0.26400
H299        H  0.47503086  0.96944700  0.28845685     0.17800
H300        H  0.44049120  0.92644601  0.70902295     0.18400
C301        C  0.47366126  0.56532782  0.30775566    -0.11200
C302        C  0.44368598  0.54885356  0.34013299    -0.26600
H303        H  0.47473403  0.54785984  0.60777996     0.17800
H304        H  0.44306877  0.56506197  0.37395569     0.18400
C305        C  0.35599795  0.00333812  0.59939809    -0.08000
C306        C  0.38372741  0.00611037  0.62903885    -0.09600
C307        C  0.35786734  0.99773678  0.40696541    -0.08000
C308        C  0.38563323  0.99762516  0.37405951    -0.09600
C309        C  0.05170005  0.92918604  0.32731252    -0.11200
C310        C  0.06313515  0.96135533  0.35880752    -0.26400
H311        H  0.07190555  0.92728945  0.62808233     0.17800
H312        H  0.04167265  0.96285190  0.39079505     0.18400
C313        C  0.06608467  0.54347357  0.35273631    -0.11200
C314        C  0.06009103  0.57033456  0.31766935    -0.26400
H315        H  0.04146695  0.54853638  0.38256111     0.17800
H316        H  0.08430506  0.56730885  0.62086514     0.18400
C317        C  0.12896927  0.99600776  0.64234511    -0.08000
C318        C  0.15682931  0.99665971  0.60956070    -0.09600
C319        C  0.12985362  0.00260988  0.38851350    -0.08000
C320        C  0.15783399  0.00039013  0.41776732    -0.09600
C321        C  0.09766902  0.50082580  0.01780089     0.02700
O322        O  0.20846468  0.53632160  0.80141200    -0.66600
O323        O  0.30469863  0.53774564  0.88574461    -0.66800
O324        O  0.30542218  0.53621364  0.79531580    -0.66600
O325        O  0.20786779  0.53569290  0.89173541    -0.66600
O326        O  0.20889514  0.96127948  0.88694297    -0.66600
O327        O  0.30666167  0.96181466  0.79244288    -0.66600
O328        O  0.30582202  0.96333786  0.88299787    -0.66600
O329        O  0.20960732  0.96190831  0.79649790    -0.66700
V330        V  0.25663684  0.53502994  0.84346537     1.35200
V331        V  0.25772756  0.96351275  0.83978368     1.35200
C332        C  0.19299429  0.99928174  0.78436738     0.82700
C333        C  0.32119837  0.00118652  0.89907560     0.82700
C334        C  0.32233829  0.99876518  0.77756349     0.82600
C335        C  0.19218240  0.99806384  0.90566976     0.82600
C336        C  0.41628650  0.00430953  0.66595791     0.02700
C337        C  0.01443023  0.59871256  0.64952460     0.02700
O338        O  0.04692545  0.79601266  0.78041073    -0.66600
O339        O  0.04962891  0.70475632  0.86488413    -0.66800
O340        O  0.04832046  0.70437490  0.77458024    -0.66600
O341        O  0.04585950  0.79652371  0.87080654    -0.66600
O342        O  0.46725858  0.79487853  0.87440543    -0.66600
O343        O  0.46972303  0.70258025  0.78019027    -0.66600
O344        O  0.47102887  0.70304600  0.87057123    -0.66600
O345        O  0.46831383  0.79427894  0.78391419    -0.66700
V346        V  0.04614234  0.75037791  0.82278418     1.35200
V347        V  0.47059404  0.74872656  0.82720604     1.35200
C348        C  0.00760463  0.81023779  0.76740683     0.82700
C349        C  0.01121479  0.68866239  0.88230882     0.82700
C350        C  0.00904581  0.68822391  0.76104269     0.82600
C351        C  0.00576717  0.81114344  0.88882487     0.82600
C352        C  0.00633881  0.90023525  0.00012935     0.02700
C353        C  0.00345653  0.84485677  0.92584837    -0.08000
C354        C  0.00179869  0.87116980  0.95862340    -0.09600
C355        C  0.00992259  0.86949522  0.70382336    -0.08000
C356        C  0.00834012  0.84320428  0.73360680    -0.09600
C357        C  0.01687389  0.62889241  0.94496356    -0.08000
C358        C  0.01391567  0.65530804  0.91556691    -0.09600
C359        C  0.00850677  0.65496331  0.72378496    -0.08000
C360        C  0.00823142  0.62869951  0.69107481    -0.09600
C361        C  0.45264093  0.96605632  0.65275871    -0.11200
C362        C  0.46200905  0.93064722  0.67772706    -0.26400
H363        H  0.47503087  0.96944695  0.62179000     0.17800
H364        H  0.44049138  0.92644591  0.04235593     0.18400
C365        C  0.47366140  0.56532779  0.64108883    -0.11200
C366        C  0.44368611  0.54885359  0.67346624    -0.26600
H367        H  0.47473411  0.54785985  0.94111326     0.17800
H368        H  0.44306892  0.56506200  0.70728879     0.18400
C369        C  0.35599806  0.00333820  0.93273134    -0.08000
C370        C  0.38372753  0.00611034  0.96237209    -0.09600
C371        C  0.35786729  0.99773678  0.74029865    -0.08000
C372        C  0.38563329  0.99762519  0.70739283    -0.09600
C373        C  0.05169986  0.92918596  0.66064589    -0.11200
C374        C  0.06313495  0.96135534  0.69214080    -0.26400
H375        H  0.07190553  0.92728959  0.96141564     0.17800
H376        H  0.04167244  0.96285196  0.72412828     0.18400
C377        C  0.06608445  0.54347364  0.68606987    -0.11200
C378        C  0.06009081  0.57033458  0.65100284    -0.26400
H379        H  0.04146694  0.54853637  0.71589437     0.17800
H380        H  0.08430512  0.56730886  0.95419837     0.18400
C381        C  0.12896943  0.99600779  0.97567851    -0.08000
C382        C  0.15682941  0.99665974  0.94289405    -0.09600
C383        C  0.12985359  0.00260972  0.72184674    -0.08000
C384        C  0.15783396  0.00039008  0.75110058    -0.09600
C385        C  0.59768453  0.00082601  0.35113288     0.02700
O386        O  0.70848007  0.03632213  0.13474427    -0.66600
O387        O  0.80471395  0.03774600  0.21907686    -0.66800
O388        O  0.80543760  0.03621433  0.12864811    -0.66600
O389        O  0.70788323  0.03569317  0.22506766    -0.66600
O390        O  0.70887942  0.46127940  0.22027765    -0.66600
O391        O  0.80664608  0.46181391  0.12577765    -0.66600
O392        O  0.80580640  0.46333737  0.21633256    -0.66600
O393        O  0.70959162  0.46190789  0.12983268    -0.66700
V394        V  0.75665223  0.03503042  0.17679763     1.35200
V395        V  0.75771190  0.46351232  0.17311842     1.35200
C396        C  0.69297872  0.49928134  0.11770207     0.82700
C397        C  0.82118286  0.50118604  0.23241022     0.82700
C398        C  0.82232284  0.49876430  0.11089811     0.82600
C399        C  0.69216694  0.49806387  0.23900443     0.82600
C400        C  0.91627118  0.50430886  0.99929249     0.02700
C401        C  0.51444587  0.09871278  0.98285645     0.02700
O402        O  0.54691925  0.29601700  0.11374426    -0.66600
O403        O  0.54963525  0.20476096  0.19821704    -0.66800
O404        O  0.54832668  0.20437949  0.10791312    -0.66600
O405        O  0.54585363  0.29652806  0.20414011    -0.66600
O406        O  0.96725279  0.29487350  0.20773867    -0.66600
O407        O  0.96972946  0.20257544  0.11352278    -0.66600
O408        O  0.97103530  0.20304120  0.20390366    -0.66600
O409        O  0.96830800  0.29427389  0.11724743    -0.66700
V410        V  0.54614247  0.25038221  0.15611743     1.35200
V411        V  0.97059435  0.24872180  0.16053893     1.35200
C412        C  0.50759650  0.31023728  0.10074019     0.82700
C413        C  0.51122330  0.18866233  0.21564127     0.82700
C414        C  0.50905418  0.18822393  0.09437515     0.82600
C415        C  0.50575943  0.31114314  0.22215831     0.82600
C416        C  0.50632379  0.40023484  0.33346308     0.02700
C417        C  0.50344451  0.34485647  0.25918188    -0.08000
C418        C  0.50178436  0.37116941  0.29195701    -0.09600
C419        C  0.50990805  0.36949468  0.03715690    -0.08000
C420        C  0.50832760  0.34320359  0.06694017    -0.09600
C421        C  0.51688896  0.12889256  0.27829537    -0.08000
C422        C  0.51392850  0.15530809  0.24889896    -0.09600
C423        C  0.50851939  0.15496344  0.05711699    -0.08000
C424        C  0.50824631  0.12869964  0.02440668    -0.09600
C425        C  0.95262576  0.46605585  0.98609295    -0.11200
C426        C  0.96199380  0.43064634  0.01106085    -0.26400
H427        H  0.97501583  0.46944699  0.95512448     0.17800
H428        H  0.94047572  0.42644465  0.37568962     0.18400
C429        C  0.97367755  0.06532756  0.97442075    -0.11200
C430        C  0.94370157  0.04885411  0.00679803    -0.26600
H431        H  0.97475051  0.04785914  0.27444546     0.17800
H432        H  0.94308373  0.06506315  0.04062039     0.18400
C433        C  0.85598258  0.50333774  0.26606596    -0.08000
C434        C  0.88371207  0.50610991  0.29570672    -0.09600
C435        C  0.85785189  0.49773563  0.07363319    -0.08000
C436        C  0.88561799  0.49762408  0.04072739    -0.09600
C437        C  0.55168458  0.42918593  0.99397997    -0.11200
C438        C  0.56311961  0.46135493  0.02547519    -0.26400
H439        H  0.57189043  0.42728994  0.29474947     0.17800
H440        H  0.54165706  0.46285117  0.05746271     0.18400
C441        C  0.56610034  0.04347422  0.01940173    -0.11200
C442        C  0.56010674  0.07033521  0.98433477    -0.26400
H443        H  0.54148256  0.04853706  0.04922646     0.17800
H444        H  0.58432130  0.06730956  0.28753038     0.18400
C445        C  0.62895409  0.49600792  0.30901322    -0.08000
C446        C  0.65681410  0.49665995  0.27622881    -0.09600
C447        C  0.62983787  0.50260944  0.05518157    -0.08000
C448        C  0.65781837  0.50038971  0.08443529    -0.09600
C449        C  0.59768465  0.00082608  0.68446622     0.02700
O450        O  0.70848006  0.03632197  0.46807748    -0.66600
O451        O  0.80471401  0.03774603  0.55241006    -0.66800
O452        O  0.80543760  0.03621430  0.46198145    -0.66600
O453        O  0.70788318  0.03569319  0.55840082    -0.66600
O454        O  0.70887947  0.46127943  0.55361091    -0.66600
O455        O  0.80664616  0.46181397  0.45911088    -0.66600
O456        O  0.80580637  0.46333735  0.54966585    -0.66600
O457        O  0.70959160  0.46190796  0.46316599    -0.66700
V458        V  0.75665224  0.03503036  0.51013086     1.35200
V459        V  0.75771194  0.46351236  0.50645166     1.35200
C460        C  0.69297871  0.49928143  0.45103542     0.82700
C461        C  0.82118287  0.50118598  0.56574349     0.82700
C462        C  0.82232296  0.49876439  0.44423138     0.82600
C463        C  0.69216691  0.49806385  0.57233769     0.82600
C464        C  0.91627121  0.50430896  0.33262577     0.02700
C465        C  0.51444601  0.09871278  0.31618980     0.02700
O466        O  0.54691939  0.29601690  0.44707757    -0.66600
O467        O  0.54963536  0.20476089  0.53155033    -0.66800
O468        O  0.54832679  0.20437941  0.44124637    -0.66600
O469        O  0.54585374  0.29652795  0.53747335    -0.66600
O470        O  0.96725270  0.29487337  0.54107194    -0.66600
O471        O  0.96972931  0.20257544  0.44685598    -0.66600
O472        O  0.97103519  0.20304108  0.53723696    -0.66600
O473        O  0.96830783  0.29427390  0.45058088    -0.66700
V474        V  0.54614259  0.25038212  0.48945069     1.35200
V475        V  0.97059421  0.24872172  0.49387222     1.35200
C476        C  0.50759666  0.31023734  0.43407365     0.82700
C477        C  0.51122342  0.18866228  0.54897461     0.82700
C478        C  0.50905429  0.18822384  0.42770844     0.82600
C479        C  0.50575955  0.31114298  0.55549160     0.82600
C480        C  0.50632383  0.40023478  0.66679635     0.02700
C481        C  0.50344462  0.34485630  0.59251517    -0.08000
C482        C  0.50178442  0.37116936  0.62529023    -0.09600
C483        C  0.50990819  0.36949469  0.37049031    -0.08000
C484        C  0.50832782  0.34320369  0.40027366    -0.09600
C485        C  0.51688905  0.12889250  0.61162874    -0.08000
C486        C  0.51392861  0.15530796  0.58223225    -0.09600
C487        C  0.50851951  0.15496345  0.39045026    -0.08000
C488        C  0.50824644  0.12869968  0.35773996    -0.09600
C489        C  0.95262584  0.46605593  0.31942622    -0.11200
C490        C  0.96199371  0.43064634  0.34439416    -0.26400
H491        H  0.97501584  0.46944708  0.28845797     0.17800
H492        H  0.94047578  0.42644463  0.70902332     0.18400
C493        C  0.97367737  0.06532751  0.30775399    -0.11200
C494        C  0.94370145  0.04885402  0.34013130    -0.26600
H495        H  0.97475063  0.04785911  0.60777872     0.17800
H496        H  0.94308368  0.06506309  0.37395376     0.18400
C497        C  0.85598261  0.50333763  0.59939922    -0.08000
C498        C  0.88371198  0.50610980  0.62904005    -0.09600
C499        C  0.85785205  0.49773577  0.40696654    -0.08000
C500        C  0.88561804  0.49762430  0.37406067    -0.09600
C501        C  0.55168465  0.42918597  0.32731320    -0.11200
C502        C  0.56311976  0.46135497  0.35880840    -0.26400
H503        H  0.57189040  0.42728980  0.62808309     0.17800
H504        H  0.54165718  0.46285124  0.39079604     0.18400
C505        C  0.56610036  0.04347405  0.35273505    -0.11200
C506        C  0.56010683  0.07033518  0.31766821    -0.26400
H507        H  0.54148253  0.04853688  0.38255988     0.17800
H508        H  0.58432119  0.06730963  0.62086397     0.18400
C509        C  0.62895396  0.49600782  0.64234650    -0.08000
C510        C  0.65681391  0.49665985  0.60956202    -0.09600
C511        C  0.62983797  0.50260952  0.38851484    -0.08000
C512        C  0.65781836  0.50038982  0.41776866    -0.09600
C513        C  0.59768459  0.00082622  0.01779963     0.02700
O514        O  0.70848014  0.03632204  0.80141075    -0.66600
O515        O  0.80471398  0.03774613  0.88574348    -0.66800
O516        O  0.80543752  0.03621438  0.79531473    -0.66600
O517        O  0.70788318  0.03569328  0.89173424    -0.66600
O518        O  0.70887944  0.46127922  0.88694438    -0.66600
O519        O  0.80664601  0.46181381  0.79244420    -0.66600
O520        O  0.80580640  0.46333735  0.88299925    -0.66600
O521        O  0.70959160  0.46190783  0.79649941    -0.66700
V522        V  0.75665223  0.03503045  0.84346422     1.35200
V523        V  0.75771189  0.46351222  0.83978509     1.35200
C524        C  0.69297870  0.49928129  0.78436881     0.82700
C525        C  0.82118291  0.50118601  0.89907686     0.82700
C526        C  0.82232276  0.49876426  0.77756473     0.82600
C527        C  0.69216692  0.49806367  0.90567118     0.82600
C528        C  0.91627106  0.50430888  0.66595914     0.02700
C529        C  0.51444605  0.09871280  0.64952322     0.02700
O530        O  0.54691938  0.29601702  0.78041094    -0.66600
O531        O  0.54963533  0.20476101  0.86488368    -0.66800
O532        O  0.54832665  0.20437947  0.77457976    -0.66600
O533        O  0.54585378  0.29652805  0.87080675    -0.66600
O534        O  0.96725271  0.29487332  0.87440537    -0.66600
O535        O  0.96972932  0.20257554  0.78018926    -0.66600
O536        O  0.97103529  0.20304111  0.87057028    -0.66600
O537        O  0.96830784  0.29427394  0.78391412    -0.66700
V538        V  0.54614255  0.25038221  0.82278405     1.35200
V539        V  0.97059424  0.24872177  0.82720555     1.35200
C540        C  0.50759661  0.31023735  0.76740691     0.82700
C541        C  0.51122340  0.18866236  0.88230793     0.82700
C542        C  0.50905414  0.18822393  0.76104179     0.82600
C543        C  0.50575956  0.31114305  0.88882499     0.82600
C544        C  0.50632372  0.40023484  0.00012974     0.02700
C545        C  0.50344456  0.34485635  0.92584860    -0.08000
C546        C  0.50178439  0.37116941  0.95862366    -0.09600
C547        C  0.50990818  0.36949459  0.70382350    -0.08000
C548        C  0.50832775  0.34320356  0.73360683    -0.09600
C549        C  0.51688887  0.12889250  0.94496198    -0.08000
C550        C  0.51392861  0.15530799  0.91556550    -0.09600
C551        C  0.50851941  0.15496350  0.72378368    -0.08000
C552        C  0.50824648  0.12869971  0.69107338    -0.09600
C553        C  0.95262566  0.46605585  0.65275971    -0.11200
C554        C  0.96199373  0.43064634  0.67772762    -0.26400
H555        H  0.97501572  0.46944695  0.62179121     0.17800
H556        H  0.94047583  0.42644462  0.04235651     0.18400
C557        C  0.97367747  0.06532762  0.64108754    -0.11200
C558        C  0.94370152  0.04885411  0.67346480    -0.26600
H559        H  0.97475067  0.04785913  0.94111213     0.17800
H560        H  0.94308373  0.06506305  0.70728707     0.18400
C561        C  0.85598265  0.50333767  0.93273262    -0.08000
C562        C  0.88371204  0.50610988  0.96237344    -0.09600
C563        C  0.85785181  0.49773570  0.74029984    -0.08000
C564        C  0.88561787  0.49762419  0.70739404    -0.09600
C565        C  0.55168475  0.42918588  0.66064651    -0.11200
C566        C  0.56311972  0.46135492  0.69214183    -0.26400
H567        H  0.57189048  0.42728987  0.96141618     0.17800
H568        H  0.54165729  0.46285119  0.72412921     0.18400
C569        C  0.56610044  0.04347413  0.68606849    -0.11200
C570        C  0.56010690  0.07033520  0.65100156    -0.26400
H571        H  0.54148281  0.04853692  0.71589313     0.17800
H572        H  0.58432103  0.06730961  0.95419717     0.18400
C573        C  0.62895396  0.49600779  0.97567996    -0.08000
C574        C  0.65681400  0.49665975  0.94289556    -0.09600
C575        C  0.62983800  0.50260950  0.72184821    -0.08000
C576        C  0.65781837  0.50038966  0.75110203    -0.09600
C577        C  0.59766914  0.50082584  0.35113416     0.02700
O578        O  0.70846467  0.53632163  0.13474534    -0.66600
O579        O  0.80469862  0.53774563  0.21907790    -0.66800
O580        O  0.80542220  0.53621361  0.12864919    -0.66600
O581        O  0.70786791  0.53569307  0.22506871    -0.66600
O582        O  0.70889496  0.96127951  0.22027627    -0.66600
O583        O  0.80666163  0.96181461  0.12577627    -0.66600
O584        O  0.80582192  0.96333773  0.21633118    -0.66600
O585        O  0.70960723  0.96190838  0.12983130    -0.66700
V586        V  0.75663687  0.53502997  0.17679869     1.35200
V587        V  0.75772744  0.96351275  0.17311705     1.35200
C588        C  0.69299432  0.99928187  0.11770077     0.82700
C589        C  0.82119831  0.00118636  0.23240895     0.82700
C590        C  0.82233834  0.99876513  0.11089690     0.82600
C591        C  0.69218233  0.99806386  0.23900317     0.82600
C592        C  0.91628657  0.00430955  0.99929124     0.02700
C593        C  0.51443037  0.59871257  0.98285792     0.02700
O594        O  0.54692539  0.79601259  0.11374395    -0.66600
O595        O  0.54962895  0.70475633  0.19821745    -0.66800
O596        O  0.54832045  0.70437483  0.10791357    -0.66600
O597        O  0.54585958  0.79652387  0.20413980    -0.66600
O598        O  0.96725859  0.79487845  0.20773875    -0.66600
O599        O  0.96972293  0.70258026  0.11352353    -0.66600
O600        O  0.97102885  0.70304594  0.20390464    -0.66600
O601        O  0.96831387  0.79427885  0.11724763    -0.66700
V602        V  0.54614236  0.75037792  0.15611746     1.35200
V603        V  0.97059402  0.74872647  0.16053939     1.35200
C604        C  0.50760455  0.81023771  0.10074009     0.82700
C605        C  0.51121481  0.68866239  0.21564212     0.82700
C606        C  0.50904581  0.68822386  0.09437600     0.82600
C607        C  0.50576724  0.81114356  0.22215815     0.82600
C608        C  0.50633869  0.90023532  0.33346272     0.02700
C609        C  0.50345649  0.84485684  0.25918175    -0.08000
C610        C  0.50179856  0.87116984  0.29195679    -0.09600
C611        C  0.50992273  0.86949520  0.03715671    -0.08000
C612        C  0.50834008  0.84320418  0.06694007    -0.09600
C613        C  0.51687372  0.62889246  0.27829696    -0.08000
C614        C  0.51391559  0.65530809  0.24890031    -0.09600
C615        C  0.50850676  0.65496322  0.05711832    -0.08000
C616        C  0.50823152  0.62869943  0.02440817    -0.09600
C617        C  0.95264096  0.96605626  0.98609203    -0.11200
C618        C  0.96200898  0.93064715  0.01106050    -0.26400
H619        H  0.97503069  0.96944678  0.95512356     0.17800
H620        H  0.94049126  0.92644589  0.37568970     0.18400
C621        C  0.97366138  0.56532776  0.97442223    -0.11200
C622        C  0.94368610  0.54885350  0.00679963    -0.26600
H623        H  0.97473401  0.54785987  0.27444663     0.17800
H624        H  0.94306889  0.56506190  0.04062220     0.18400
C625        C  0.85599812  0.00333799  0.26606458    -0.08000
C626        C  0.88372750  0.00611026  0.29570539    -0.09600
C627        C  0.85786741  0.99773669  0.07363204    -0.08000
C628        C  0.88563338  0.99762526  0.04072617    -0.09600
C629        C  0.55170000  0.92918606  0.99397932    -0.11200
C630        C  0.56313506  0.96135549  0.02547416    -0.26400
H631        H  0.57190558  0.92728954  0.29474876     0.17800
H632        H  0.54167244  0.96285214  0.05746176     0.18400
C633        C  0.56608463  0.54347368  0.01940309    -0.11200
C634        C  0.56009101  0.57033462  0.98433608    -0.26400
H635        H  0.54146693  0.54853651  0.04922786     0.17800
H636        H  0.58430490  0.56730892  0.28753175     0.18400
C637        C  0.62896927  0.99600770  0.30901181    -0.08000
C638        C  0.65682933  0.99665967  0.27622743    -0.09600
C639        C  0.62985357  0.00260996  0.05518020    -0.08000
C640        C  0.65783409  0.00039026  0.08443391    -0.09600
C641        C  0.59766912  0.50082581  0.68446754     0.02700
O642        O  0.70846477  0.53632171  0.46807860    -0.66600
O643        O  0.80469872  0.53774561  0.55241115    -0.66800
O644        O  0.80542227  0.53621368  0.46198244    -0.66600
O645        O  0.70786790  0.53569308  0.55840201    -0.66600
O646        O  0.70889504  0.96127954  0.55360952    -0.66600
O647        O  0.80666172  0.96181459  0.45910958    -0.66600
O648        O  0.80582196  0.96333778  0.54966453    -0.66600
O649        O  0.70960729  0.96190825  0.46316457    -0.66700
V650        V  0.75663693  0.53503002  0.51013197     1.35200
V651        V  0.75772752  0.96351271  0.50645034     1.35200
C652        C  0.69299424  0.99928169  0.45103409     0.82700
C653        C  0.82119838  0.00118643  0.56574225     0.82700
C654        C  0.82233836  0.99876511  0.44423023     0.82600
C655        C  0.69218235  0.99806389  0.57233639     0.82600
C656        C  0.91628648  0.00430944  0.33262453     0.02700
C657        C  0.51443022  0.59871258  0.31619131     0.02700
O658        O  0.54692540  0.79601260  0.44707723    -0.66600
O659        O  0.54962907  0.70475639  0.53155080    -0.66800
O660        O  0.54832049  0.70437488  0.44124692    -0.66600
O661        O  0.54585969  0.79652376  0.53747319    -0.66600
O662        O  0.96725846  0.79487851  0.54107200    -0.66600
O663        O  0.96972296  0.70258018  0.44685694    -0.66600
O664        O  0.97102866  0.70304599  0.53723789    -0.66600
O665        O  0.96831382  0.79427885  0.45058080    -0.66700
V666        V  0.54614244  0.75037793  0.48945080     1.35200
V667        V  0.97059394  0.74872651  0.49387265     1.35200
C668        C  0.50760454  0.81023770  0.43407339     0.82700
C669        C  0.51121494  0.68866245  0.54897548     0.82700
C670        C  0.50904582  0.68822396  0.42770936     0.82600
C671        C  0.50576736  0.81114341  0.55549159     0.82600
C672        C  0.50633881  0.90023533  0.66679600     0.02700
C673        C  0.50345662  0.84485671  0.59251512    -0.08000
C674        C  0.50179870  0.87116980  0.62529009    -0.09600
C675        C  0.50992258  0.86949524  0.37049002    -0.08000
C676        C  0.50834001  0.84320417  0.40027335    -0.09600
C677        C  0.51687388  0.62889243  0.61163019    -0.08000
C678        C  0.51391573  0.65530808  0.58223358    -0.09600
C679        C  0.50850673  0.65496335  0.39045165    -0.08000
C680        C  0.50823141  0.62869946  0.35774156    -0.09600
C681        C  0.95264095  0.96605622  0.31942545    -0.11200
C682        C  0.96200910  0.93064714  0.34439382    -0.26400
H683        H  0.97503091  0.96944684  0.28845678     0.17800
H684        H  0.94049113  0.92644593  0.70902280     0.18400
C685        C  0.97366143  0.56532783  0.30775560    -0.11200
C686        C  0.94368610  0.54885360  0.34013294    -0.26600
H687        H  0.97473403  0.54785973  0.60778001     0.17800
H688        H  0.94306890  0.56506198  0.37395559     0.18400
C689        C  0.85599811  0.00333811  0.59939796    -0.08000
C690        C  0.88372749  0.00611037  0.62903880    -0.09600
C691        C  0.85786725  0.99773672  0.40696528    -0.08000
C692        C  0.88563319  0.99762513  0.37405940    -0.09600
C693        C  0.55169978  0.92918603  0.32731257    -0.11200
C694        C  0.56313492  0.96135536  0.35880745    -0.26400
H695        H  0.57190555  0.92728969  0.62808227     0.17800
H696        H  0.54167241  0.96285199  0.39079499     0.18400
C697        C  0.56608463  0.54347363  0.35273633    -0.11200
C698        C  0.56009085  0.57033457  0.31766935    -0.26400
H699        H  0.54146694  0.54853641  0.38256117     0.17800
H700        H  0.58430513  0.56730884  0.62086503     0.18400
C701        C  0.62896935  0.99600778  0.64234512    -0.08000
C702        C  0.65682938  0.99665971  0.60956070    -0.09600
C703        C  0.62985355  0.00260966  0.38851342    -0.08000
C704        C  0.65783396  0.00039002  0.41776722    -0.09600
C705        C  0.59766901  0.50082579  0.01780092     0.02700
O706        O  0.70846461  0.53632157  0.80141208    -0.66600
O707        O  0.80469868  0.53774561  0.88574455    -0.66800
O708        O  0.80542214  0.53621352  0.79531587    -0.66600
O709        O  0.70786786  0.53569288  0.89173545    -0.66600
O710        O  0.70889513  0.96127963  0.88694305    -0.66600
O711        O  0.80666176  0.96181467  0.79244302    -0.66600
O712        O  0.80582210  0.96333788  0.88299789    -0.66600
O713        O  0.70960732  0.96190831  0.79649804    -0.66700
V714        V  0.75663683  0.53502988  0.84346540     1.35200
V715        V  0.75772758  0.96351280  0.83978379     1.35200
C716        C  0.69299432  0.99928173  0.78436743     0.82700
C717        C  0.82119841  0.00118654  0.89907565     0.82700
C718        C  0.82233833  0.99876518  0.77756357     0.82600
C719        C  0.69218240  0.99806398  0.90566987     0.82600
C720        C  0.91628653  0.00430952  0.66595790     0.02700
C721        C  0.51443033  0.59871259  0.64952457     0.02700
O722        O  0.54692550  0.79601275  0.78041072    -0.66600
O723        O  0.54962917  0.70475639  0.86488413    -0.66800
O724        O  0.54832060  0.70437496  0.77458022    -0.66600
O725        O  0.54585979  0.79652379  0.87080655    -0.66600
O726        O  0.96725828  0.79487853  0.87440544    -0.66600
O727        O  0.96972287  0.70258024  0.78019028    -0.66600
O728        O  0.97102860  0.70304597  0.87057125    -0.66600
O729        O  0.96831377  0.79427893  0.78391418    -0.66700
V730        V  0.54614254  0.75037798  0.82278416     1.35200
V731        V  0.97059383  0.74872654  0.82720604     1.35200
C732        C  0.50760466  0.81023782  0.76740681     0.82700
C733        C  0.51121504  0.68866241  0.88230880     0.82700
C734        C  0.50904596  0.68822396  0.76104266     0.82600
C735        C  0.50576745  0.81114346  0.88882489     0.82600
C736        C  0.50633890  0.90023528  0.00012938     0.02700
C737        C  0.50345671  0.84485679  0.92584839    -0.08000
C738        C  0.50179880  0.87116983  0.95862342    -0.09600
C739        C  0.50992270  0.86949529  0.70382335    -0.08000
C740        C  0.50834016  0.84320431  0.73360676    -0.09600
C741        C  0.51687396  0.62889242  0.94496356    -0.08000
C742        C  0.51391582  0.65530805  0.91556690    -0.09600
C743        C  0.50850689  0.65496339  0.72378487    -0.08000
C744        C  0.50823149  0.62869952  0.69107478    -0.09600
C745        C  0.95264095  0.96605630  0.65275872    -0.11200
C746        C  0.96200894  0.93064715  0.67772708    -0.26400
H747        H  0.97503094  0.96944693  0.62179006     0.17800
H748        H  0.94049133  0.92644597  0.04235611     0.18400
C749        C  0.97366131  0.56532772  0.64108886    -0.11200
C750        C  0.94368594  0.54885355  0.67346624    -0.26600
H751        H  0.97473402  0.54785987  0.94111341     0.17800
H752        H  0.94306866  0.56506203  0.70728874     0.18400
C753        C  0.85599815  0.00333819  0.93273136    -0.08000
C754        C  0.88372756  0.00611043  0.96237215    -0.09600
C755        C  0.85786733  0.99773676  0.74029869    -0.08000
C756        C  0.88563331  0.99762520  0.70739283    -0.09600
C757        C  0.55169990  0.92918611  0.66064586    -0.11200
C758        C  0.56313504  0.96135541  0.69214082    -0.26400
H759        H  0.57190582  0.92728956  0.96141563     0.17800
H760        H  0.54167256  0.96285199  0.72412832     0.18400
C761        C  0.56608467  0.54347369  0.68606982    -0.11200
C762        C  0.56009092  0.57033460  0.65100281    -0.26400
H763        H  0.54146715  0.54853649  0.71589455     0.17800
H764        H  0.58430510  0.56730893  0.95419853     0.18400
C765        C  0.62896938  0.99600790  0.97567859    -0.08000
C766        C  0.65682935  0.99665981  0.94289414    -0.09600
C767        C  0.62985368  0.00260973  0.72184675    -0.08000
C768        C  0.65783405  0.00039003  0.75110059    -0.09600
loop_ 
_geom_bond_atom_site_label_1 
_geom_bond_atom_site_label_2 
_geom_bond_distance 
_geom_bond_site_symmetry_2 
_ccdc_geom_bond_type 
C1          C310   1.519   1_545  S
C1          C121   1.522       .  S
C1          C253   1.479   1_545  S
C1          C319   1.468       .  S
O2           V10   1.888       .  S
O2          C204   1.258   1_545  A
O3           V10   1.888       .  S
O3          C205   1.258       .  A
O4           V10   1.909       .  S
O4          C206   1.267   1_545  A
O5           V10   1.909       .  S
O5          C207   1.266   1_545  A
O6           V11   1.892       .  S
O6           C15   1.259       .  A
O7           V11   1.892       .  S
O7           C14   1.259       .  A
O8           V11   1.910       .  S
O8           C13   1.267       .  A
O9           V11   1.911       .  S
O9           C12   1.267       .  A
V10         V203   2.091   1_545  T
V11         V202   2.091       .  T
C12         O194   1.258       .  A
C12          C64   1.434       .  S
C13         O195   1.258       .  A
C13          C49   1.433       .  S
C14         O196   1.267       .  A
C14          C51   1.435       .  S
C15         O197   1.266       .  A
C15          C62   1.435       .  S
C16          C41   1.525       .  S
C16         C238   1.522   1_556  S
C16          C52   1.475   1_556  S
C16         C178   1.468       .  S
C17          C58   1.518       .  S
C17         C429   1.518   1_455  S
C17          C40   1.477   1_556  S
C17         C165   1.470       .  S
O18          V26   1.887       .  S
O18          C28   1.258       .  A
O19          V26   1.889       .  S
O19          C29   1.258       .  A
O20          V26   1.910       .  S
O20          C30   1.267       .  A
O21          V26   1.910       .  S
O21          C31   1.267       .  A
O22          V27   1.892       .  S
O22         C415   1.259       .  A
O23          V27   1.891       .  S
O23         C414   1.259       .  A
O24          V27   1.911       .  S
O24         C413   1.267       .  A
O25          V27   1.910       .  S
O25         C412   1.267       .  A
V26         V411   2.091   1_455  T
V27         V410   2.091       .  T
C28         O409   1.267   1_455  A
C28          C36   1.432       .  S
C29         O408   1.267   1_455  A
C29          C38   1.434       .  S
C30         O407   1.259   1_455  A
C30          C39   1.435       .  S
C31         O406   1.259   1_455  A
C31          C33   1.436       .  S
C32         C490   1.525   1_455  S
C32         C117   1.524       .  S
C32          C34   1.472       .  S
C32          C99   1.470       .  S
C33          C34   1.207       .  T
C35         C160   1.470       .  S
C35          C36   1.205       .  T
C37          C81   1.470       .  S
C37          C38   1.207       .  T
C39          C40   1.207       .  T
C41          C42   1.344   1_556  D
C41          H43   1.088       .  S
C42         C544   1.525       .  S
C42         H172   1.087       .  S
H44         C106   1.087       .  S
C45         C401   1.518       .  S
C45          C46   1.343   1_556  D
C45         H175   1.088       .  S
C46         C208   1.522   1_554  S
C46          H48   1.088       .  S
H47         C109   1.088       .  S
C49          C50   1.205       .  T
C50          C80   1.468       .  S
C51          C52   1.207       .  T
C53         C160   1.524   1_556  S
C53          C54   1.343   1_556  D
C53         H183   1.087       .  S
C54         C321   1.519       .  S
C54          H56   1.089       .  S
H55         C117   1.087       .  S
C57         C129   1.522       .  S
C57          C58   1.360   1_554  D
C57          H59   1.088       .  S
C58         H188   1.086       .  S
H60         C122   1.086       .  S
C61         C193   1.479       .  S
C61          C62   1.207       .  T
C63         C321   1.468       .  S
C63          C64   1.206       .  T
C65         C374   1.519   1_545  S
C65         C185   1.522       .  S
C65         C317   1.479   1_545  S
C65         C383   1.468       .  S
O66          V74   1.888       .  S
O66         C268   1.258   1_545  A
O67          V74   1.888       .  S
O67         C269   1.258       .  A
O68          V74   1.909       .  S
O68         C270   1.267   1_545  A
O69          V74   1.909       .  S
O69         C271   1.266   1_545  A
O70          V75   1.892       .  S
O70          C79   1.259       .  A
O71          V75   1.892       .  S
O71          C78   1.259       .  A
O72          V75   1.910       .  S
O72          C77   1.267       .  A
O73          V75   1.911       .  S
O73          C76   1.267       .  A
V74         V267   2.091   1_545  T
V75         V266   2.091       .  T
C76         O258   1.258       .  A
C76         C128   1.434       .  S
C77         O259   1.258       .  A
C77         C113   1.433       .  S
C78         O260   1.267       .  A
C78         C115   1.435       .  S
C79         O261   1.266       .  A
C79         C126   1.435       .  S
C80         C105   1.525       .  S
C80         C302   1.522       .  S
C80         C116   1.475       .  S
C81         C493   1.518   1_455  S
C81         C122   1.518       .  S
C81         C104   1.477       .  S
O82          V90   1.887       .  S
O82          C92   1.258       .  A
O83          V90   1.889       .  S
O83          C93   1.258       .  A
O84          V90   1.910       .  S
O84          C94   1.267       .  A
O85          V90   1.910       .  S
O85          C95   1.267       .  A
O86          V91   1.892       .  S
O86         C479   1.259       .  A
O87          V91   1.891       .  S
O87         C478   1.259       .  A
O88          V91   1.911       .  S
O88         C477   1.267       .  A
O89          V91   1.910       .  S
O89         C476   1.267       .  A
V90         V475   2.091   1_455  T
V91         V474   2.091       .  T
C92         O473   1.267   1_455  A
C92         C100   1.432       .  S
C93         O472   1.267   1_455  A
C93         C102   1.434       .  S
C94         O471   1.259   1_455  A
C94         C103   1.435       .  S
C95         O470   1.259   1_455  A
C95          C97   1.436       .  S
C96         C554   1.525   1_455  S
C96         C181   1.524       .  S
C96          C98   1.472       .  S
C96         C163   1.470       .  S
C97          C98   1.207       .  T
C99         C100   1.205       .  T
C101        C145   1.470       .  S
C101        C102   1.207       .  T
C103        C104   1.207       .  T
C105        C106   1.344       .  D
C105        H107   1.088       .  S
C106        C416   1.525       .  S
H108        C170   1.087       .  S
C109        C465   1.518       .  S
C109        C110   1.343       .  D
C110        C272   1.522       .  S
C110        H112   1.088       .  S
H111        C173   1.088       .  S
C113        C114   1.205       .  T
C114        C144   1.468       .  S
C115        C116   1.207       .  T
C117        C118   1.343       .  D
C118        C193   1.519       .  S
C118        H120   1.089       .  S
H119        C181   1.087       .  S
C121        C122   1.360       .  D
C121        H123   1.088       .  S
H124        C186   1.086       .  S
C125        C257   1.479       .  S
C125        C126   1.207       .  T
C127        C193   1.468       .  S
C127        C128   1.206       .  T
C129        C246   1.519   1_545  S
C129        C381   1.479   1_544  S
C129        C255   1.468       .  S
O130        V138   1.888       .  S
O130        C332   1.258   1_545  A
O131        V138   1.888       .  S
O131        C333   1.258       .  A
O132        V138   1.909       .  S
O132        C334   1.267   1_545  A
O133        V138   1.909       .  S
O133        C335   1.266   1_545  A
O134        V139   1.892       .  S
O134        C143   1.259       .  A
O135        V139   1.892       .  S
O135        C142   1.259       .  A
O136        V139   1.910       .  S
O136        C141   1.267       .  A
O137        V139   1.911       .  S
O137        C140   1.267       .  A
V138        V331   2.091   1_545  T
V139        V330   2.091       .  T
C140        O322   1.258       .  A
C140        C192   1.434       .  S
C141        O323   1.258       .  A
C141        C177   1.433       .  S
C142        O324   1.267       .  A
C142        C179   1.435       .  S
C143        O325   1.266       .  A
C143        C190   1.435       .  S
C144        C169   1.525       .  S
C144        C366   1.522       .  S
C144        C180   1.475       .  S
C145        C557   1.518   1_455  S
C145        C186   1.518       .  S
C145        C168   1.477       .  S
O146        V154   1.887       .  S
O146        C156   1.258       .  A
O147        V154   1.889       .  S
O147        C157   1.258       .  A
O148        V154   1.910       .  S
O148        C158   1.267       .  A
O149        V154   1.910       .  S
O149        C159   1.267       .  A
O150        V155   1.892       .  S
O150        C543   1.259       .  A
O151        V155   1.891       .  S
O151        C542   1.259       .  A
O152        V155   1.911       .  S
O152        C541   1.267       .  A
O153        V155   1.910       .  S
O153        C540   1.267       .  A
V154        V539   2.091   1_455  T
V155        V538   2.091       .  T
C156        O537   1.267   1_455  A
C156        C164   1.432       .  S
C157        O536   1.267   1_455  A
C157        C166   1.434       .  S
C158        O535   1.259   1_455  A
C158        C167   1.435       .  S
C159        O534   1.259   1_455  A
C159        C161   1.436       .  S
C160        C426   1.525   1_455  S
C160        C162   1.472   1_554  S
C161        C162   1.207       .  T
C163        C164   1.205       .  T
C165        C166   1.207       .  T
C167        C168   1.207       .  T
C169        C170   1.344       .  D
C169        H171   1.088       .  S
C170        C480   1.525       .  S
C173        C529   1.518       .  S
C173        C174   1.343       .  D
C174        C336   1.522       .  S
C174        H176   1.088       .  S
C177        C178   1.205       .  T
C179        C180   1.207       .  T
C181        C182   1.343       .  D
C182        C257   1.519       .  S
C182        H184   1.089       .  S
C185        C186   1.360       .  D
C185        H187   1.088       .  S
C189        C321   1.479   1_556  S
C189        C190   1.207       .  T
C191        C257   1.468       .  S
C191        C192   1.206       .  T
C193        C313   1.522       .  S
O194        V202   1.888       .  S
O195        V202   1.888       .  S
O196        V202   1.909       .  S
O197        V202   1.909       .  S
O198        V203   1.892       .  S
O198        C207   1.259       .  A
O199        V203   1.892       .  S
O199        C206   1.259       .  A
O200        V203   1.910       .  S
O200        C205   1.267   1_565  A
O201        V203   1.911       .  S
O201        C204   1.267       .  A
C204        C256   1.434   1_565  S
C205        C241   1.433       .  S
C206        C243   1.435       .  S
C207        C254   1.435       .  S
C208        C233   1.525   1_545  S
C208        C370   1.468       .  S
C208        C244   1.475   1_546  S
C209        C621   1.518   1_455  S
C209        C250   1.518       .  S
C209        C357   1.470       .  S
C209        C232   1.477   1_556  S
O210        V218   1.887       .  S
O210        C220   1.258       .  A
O211        V218   1.889       .  S
O211        C221   1.258       .  A
O212        V218   1.910       .  S
O212        C222   1.267       .  A
O213        V218   1.910       .  S
O213        C223   1.267       .  A
O214        V219   1.892       .  S
O214        C607   1.259       .  A
O215        V219   1.891       .  S
O215        C606   1.259       .  A
O216        V219   1.911       .  S
O216        C605   1.267       .  A
O217        V219   1.910       .  S
O217        C604   1.267       .  A
V218        V603   2.091   1_455  T
V219        V602   2.091       .  T
C220        O601   1.267   1_455  A
C220        C228   1.432       .  S
C221        O600   1.267   1_455  A
C221        C230   1.434       .  S
C222        O599   1.259   1_455  A
C222        C231   1.435       .  S
C223        O598   1.259   1_455  A
C223        C225   1.436       .  S
C224        C682   1.525   1_455  S
C224        C309   1.524       .  S
C224        C226   1.472       .  S
C224        C291   1.470       .  S
C225        C226   1.207       .  T
C227        C352   1.470       .  S
C227        C228   1.205       .  T
C229        C273   1.470       .  S
C229        C230   1.207       .  T
C231        C232   1.207       .  T
C233        C234   1.344   1_556  D
C233        H235   1.088       .  S
C234        C736   1.525       .  S
C234        H364   1.087       .  S
H236        C298   1.087       .  S
C237        C593   1.518       .  S
C237        C238   1.343   1_556  D
C237        H367   1.088       .  S
C238        H240   1.088       .  S
H239        C301   1.088       .  S
C241        C242   1.205       .  T
C242        C272   1.468       .  S
C243        C244   1.207       .  T
C245        C352   1.524   1_556  S
C245        C246   1.343   1_556  D
C245        H375   1.087       .  S
C246        H248   1.089       .  S
H247        C309   1.087       .  S
C249        C321   1.522       .  S
C249        C250   1.360   1_554  D
C249        H251   1.088       .  S
C250        H380   1.086       .  S
H252        C314   1.086       .  S
C253        C254   1.207       .  T
C255        C256   1.206       .  T
C257        C377   1.522       .  S
O258        V266   1.888       .  S
O259        V266   1.888       .  S
O260        V266   1.909       .  S
O261        V266   1.909       .  S
O262        V267   1.892       .  S
O262        C271   1.259       .  A
O263        V267   1.892       .  S
O263        C270   1.259       .  A
O264        V267   1.910       .  S
O264        C269   1.267   1_565  A
O265        V267   1.911       .  S
O265        C268   1.267       .  A
C268        C320   1.434   1_565  S
C269        C305   1.433       .  S
C270        C307   1.435       .  S
C271        C318   1.435       .  S
C272        C297   1.525   1_545  S
C272        C308   1.475   1_545  S
C273        C685   1.518   1_455  S
C273        C314   1.518       .  S
C273        C296   1.477       .  S
O274        V282   1.887       .  S
O274        C284   1.258       .  A
O275        V282   1.889       .  S
O275        C285   1.258       .  A
O276        V282   1.910       .  S
O276        C286   1.267       .  A
O277        V282   1.910       .  S
O277        C287   1.267       .  A
O278        V283   1.892       .  S
O278        C671   1.259       .  A
O279        V283   1.891       .  S
O279        C670   1.259       .  A
O280        V283   1.911       .  S
O280        C669   1.267       .  A
O281        V283   1.910       .  S
O281        C668   1.267       .  A
V282        V667   2.091   1_455  T
V283        V666   2.091       .  T
C284        O665   1.267   1_455  A
C284        C292   1.432       .  S
C285        O664   1.267   1_455  A
C285        C294   1.434       .  S
C286        O663   1.259   1_455  A
C286        C295   1.435       .  S
C287        O662   1.259   1_455  A
C287        C289   1.436       .  S
C288        C746   1.525   1_455  S
C288        C373   1.524       .  S
C288        C290   1.472       .  S
C288        C355   1.470       .  S
C289        C290   1.207       .  T
C291        C292   1.205       .  T
C293        C337   1.470       .  S
C293        C294   1.207       .  T
C295        C296   1.207       .  T
C297        C298   1.344       .  D
C297        H299   1.088       .  S
C298        C608   1.525       .  S
H300        C362   1.087       .  S
C301        C657   1.518       .  S
C301        C302   1.343       .  D
C302        H304   1.088       .  S
H303        C365   1.088       .  S
C305        C306   1.205       .  T
C306        C336   1.468       .  S
C307        C308   1.207       .  T
C309        C310   1.343       .  D
C310        H312   1.089       .  S
H311        C373   1.087       .  S
C313        C314   1.360       .  D
C313        H315   1.088       .  S
H316        C378   1.086       .  S
C317        C318   1.207       .  T
C319        C320   1.206       .  T
O322        V330   1.888       .  S
O323        V330   1.888       .  S
O324        V330   1.909       .  S
O325        V330   1.909       .  S
O326        V331   1.892       .  S
O326        C335   1.259       .  A
O327        V331   1.892       .  S
O327        C334   1.259       .  A
O328        V331   1.910       .  S
O328        C333   1.267   1_565  A
O329        V331   1.911       .  S
O329        C332   1.267       .  A
C332        C384   1.434   1_565  S
C333        C369   1.433       .  S
C334        C371   1.435       .  S
C335        C382   1.435       .  S
C336        C361   1.525   1_545  S
C336        C372   1.475   1_545  S
C337        C749   1.518   1_455  S
C337        C378   1.518       .  S
C337        C360   1.477       .  S
O338        V346   1.887       .  S
O338        C348   1.258       .  A
O339        V346   1.889       .  S
O339        C349   1.258       .  A
O340        V346   1.910       .  S
O340        C350   1.267       .  A
O341        V346   1.910       .  S
O341        C351   1.267       .  A
O342        V347   1.892       .  S
O342        C735   1.259       .  A
O343        V347   1.891       .  S
O343        C734   1.259       .  A
O344        V347   1.911       .  S
O344        C733   1.267       .  A
O345        V347   1.910       .  S
O345        C732   1.267       .  A
V346        V731   2.091   1_455  T
V347        V730   2.091       .  T
C348        O729   1.267   1_455  A
C348        C356   1.432       .  S
C349        O728   1.267   1_455  A
C349        C358   1.434       .  S
C350        O727   1.259   1_455  A
C350        C359   1.435       .  S
C351        O726   1.259   1_455  A
C351        C353   1.436       .  S
C352        C618   1.525   1_455  S
C352        C354   1.472   1_554  S
C353        C354   1.207       .  T
C355        C356   1.205       .  T
C357        C358   1.207       .  T
C359        C360   1.207       .  T
C361        C362   1.344       .  D
C361        H363   1.088       .  S
C362        C672   1.525       .  S
C365        C721   1.518       .  S
C365        C366   1.343       .  D
C366        H368   1.088       .  S
C369        C370   1.205       .  T
C371        C372   1.207       .  T
C373        C374   1.343       .  D
C374        H376   1.089       .  S
C377        C378   1.360       .  D
C377        H379   1.088       .  S
C381        C382   1.207       .  T
C383        C384   1.206       .  T
C385        C694   1.519   1_545  S
C385        C505   1.522       .  S
C385        C637   1.479   1_545  S
C385        C703   1.468       .  S
O386        V394   1.888       .  S
O386        C588   1.258   1_545  A
O387        V394   1.888       .  S
O387        C589   1.258       .  A
O388        V394   1.909       .  S
O388        C590   1.267   1_545  A
O389        V394   1.909       .  S
O389        C591   1.266   1_545  A
O390        V395   1.892       .  S
O390        C399   1.259       .  A
O391        V395   1.892       .  S
O391        C398   1.259       .  A
O392        V395   1.910       .  S
O392        C397   1.267       .  A
O393        V395   1.911       .  S
O393        C396   1.267       .  A
V394        V587   2.091   1_545  T
V395        V586   2.091       .  T
C396        O578   1.258       .  A
C396        C448   1.434       .  S
C397        O579   1.258       .  A
C397        C433   1.433       .  S
C398        O580   1.267       .  A
C398        C435   1.435       .  S
C399        O581   1.266       .  A
C399        C446   1.435       .  S
C400        C425   1.525       .  S
C400        C622   1.522   1_556  S
C400        C562   1.468       .  S
C400        C436   1.475   1_556  S
C401        C442   1.518       .  S
C401        C549   1.470       .  S
C401        C424   1.477   1_556  S
O402        V410   1.887       .  S
O402        C412   1.258       .  A
O403        V410   1.889       .  S
O403        C413   1.258       .  A
O404        V410   1.910       .  S
O404        C414   1.267       .  A
O405        V410   1.910       .  S
O405        C415   1.267       .  A
O406        V411   1.892       .  S
O407        V411   1.891       .  S
O408        V411   1.911       .  S
O409        V411   1.910       .  S
C412        C420   1.432       .  S
C413        C422   1.434       .  S
C414        C423   1.435       .  S
C415        C417   1.436       .  S
C416        C501   1.524       .  S
C416        C418   1.472       .  S
C416        C483   1.470       .  S
C417        C418   1.207       .  T
C419        C544   1.470       .  S
C419        C420   1.205       .  T
C421        C465   1.470       .  S
C421        C422   1.207       .  T
C423        C424   1.207       .  T
C425        C426   1.344   1_556  D
C425        H427   1.088       .  S
C426        H556   1.087       .  S
H428        C490   1.087       .  S
C429        C430   1.343   1_556  D
C429        H559   1.088       .  S
C430        C592   1.522   1_554  S
C430        H432   1.088       .  S
H431        C493   1.088       .  S
C433        C434   1.205       .  T
C434        C464   1.468       .  S
C435        C436   1.207       .  T
C437        C544   1.524   1_556  S
C437        C438   1.343   1_556  D
C437        H567   1.087       .  S
C438        C705   1.519       .  S
C438        H440   1.089       .  S
H439        C501   1.087       .  S
C441        C513   1.522       .  S
C441        C442   1.360   1_554  D
C441        H443   1.088       .  S
C442        H572   1.086       .  S
H444        C506   1.086       .  S
C445        C577   1.479       .  S
C445        C446   1.207       .  T
C447        C705   1.468       .  S
C447        C448   1.206       .  T
C449        C758   1.519   1_545  S
C449        C569   1.522       .  S
C449        C701   1.479   1_545  S
C449        C767   1.468       .  S
O450        V458   1.888       .  S
O450        C652   1.258   1_545  A
O451        V458   1.888       .  S
O451        C653   1.258       .  A
O452        V458   1.909       .  S
O452        C654   1.267   1_545  A
O453        V458   1.909       .  S
O453        C655   1.266   1_545  A
O454        V459   1.892       .  S
O454        C463   1.259       .  A
O455        V459   1.892       .  S
O455        C462   1.259       .  A
O456        V459   1.910       .  S
O456        C461   1.267       .  A
O457        V459   1.911       .  S
O457        C460   1.267       .  A
V458        V651   2.091   1_545  T
V459        V650   2.091       .  T
C460        O642   1.258       .  A
C460        C512   1.434       .  S
C461        O643   1.258       .  A
C461        C497   1.433       .  S
C462        O644   1.267       .  A
C462        C499   1.435       .  S
C463        O645   1.266       .  A
C463        C510   1.435       .  S
C464        C489   1.525       .  S
C464        C686   1.522       .  S
C464        C500   1.475       .  S
C465        C506   1.518       .  S
C465        C488   1.477       .  S
O466        V474   1.887       .  S
O466        C476   1.258       .  A
O467        V474   1.889       .  S
O467        C477   1.258       .  A
O468        V474   1.910       .  S
O468        C478   1.267       .  A
O469        V474   1.910       .  S
O469        C479   1.267       .  A
O470        V475   1.892       .  S
O471        V475   1.891       .  S
O472        V475   1.911       .  S
O473        V475   1.910       .  S
C476        C484   1.432       .  S
C477        C486   1.434       .  S
C478        C487   1.435       .  S
C479        C481   1.436       .  S
C480        C565   1.524       .  S
C480        C482   1.472       .  S
C480        C547   1.470       .  S
C481        C482   1.207       .  T
C483        C484   1.205       .  T
C485        C529   1.470       .  S
C485        C486   1.207       .  T
C487        C488   1.207       .  T
C489        C490   1.344       .  D
C489        H491   1.088       .  S
H492        C554   1.087       .  S
C493        C494   1.343       .  D
C494        C656   1.522       .  S
C494        H496   1.088       .  S
H495        C557   1.088       .  S
C497        C498   1.205       .  T
C498        C528   1.468       .  S
C499        C500   1.207       .  T
C501        C502   1.343       .  D
C502        C577   1.519       .  S
C502        H504   1.089       .  S
H503        C565   1.087       .  S
C505        C506   1.360       .  D
C505        H507   1.088       .  S
H508        C570   1.086       .  S
C509        C641   1.479       .  S
C509        C510   1.207       .  T
C511        C577   1.468       .  S
C511        C512   1.206       .  T
C513        C630   1.519   1_545  S
C513        C765   1.479   1_544  S
C513        C639   1.468       .  S
O514        V522   1.888       .  S
O514        C716   1.258   1_545  A
O515        V522   1.888       .  S
O515        C717   1.258       .  A
O516        V522   1.909       .  S
O516        C718   1.267   1_545  A
O517        V522   1.909       .  S
O517        C719   1.266   1_545  A
O518        V523   1.892       .  S
O518        C527   1.259       .  A
O519        V523   1.892       .  S
O519        C526   1.259       .  A
O520        V523   1.910       .  S
O520        C525   1.267       .  A
O521        V523   1.911       .  S
O521        C524   1.267       .  A
V522        V715   2.091   1_545  T
V523        V714   2.091       .  T
C524        O706   1.258       .  A
C524        C576   1.434       .  S
C525        O707   1.258       .  A
C525        C561   1.433       .  S
C526        O708   1.267       .  A
C526        C563   1.435       .  S
C527        O709   1.266       .  A
C527        C574   1.435       .  S
C528        C553   1.525       .  S
C528        C750   1.522       .  S
C528        C564   1.475       .  S
C529        C570   1.518       .  S
C529        C552   1.477       .  S
O530        V538   1.887       .  S
O530        C540   1.258       .  A
O531        V538   1.889       .  S
O531        C541   1.258       .  A
O532        V538   1.910       .  S
O532        C542   1.267       .  A
O533        V538   1.910       .  S
O533        C543   1.267       .  A
O534        V539   1.892       .  S
O535        V539   1.891       .  S
O536        V539   1.911       .  S
O537        V539   1.910       .  S
C540        C548   1.432       .  S
C541        C550   1.434       .  S
C542        C551   1.435       .  S
C543        C545   1.436       .  S
C544        C546   1.472   1_554  S
C545        C546   1.207       .  T
C547        C548   1.205       .  T
C549        C550   1.207       .  T
C551        C552   1.207       .  T
C553        C554   1.344       .  D
C553        H555   1.088       .  S
C557        C558   1.343       .  D
C558        C720   1.522       .  S
C558        H560   1.088       .  S
C561        C562   1.205       .  T
C563        C564   1.207       .  T
C565        C566   1.343       .  D
C566        C641   1.519       .  S
C566        H568   1.089       .  S
C569        C570   1.360       .  D
C569        H571   1.088       .  S
C573        C705   1.479   1_556  S
C573        C574   1.207       .  T
C575        C641   1.468       .  S
C575        C576   1.206       .  T
C577        C697   1.522       .  S
O578        V586   1.888       .  S
O579        V586   1.888       .  S
O580        V586   1.909       .  S
O581        V586   1.909       .  S
O582        V587   1.892       .  S
O582        C591   1.259       .  A
O583        V587   1.892       .  S
O583        C590   1.259       .  A
O584        V587   1.910       .  S
O584        C589   1.267   1_565  A
O585        V587   1.911       .  S
O585        C588   1.267       .  A
C588        C640   1.434   1_565  S
C589        C625   1.433       .  S
C590        C627   1.435       .  S
C591        C638   1.435       .  S
C592        C617   1.525   1_545  S
C592        C754   1.468       .  S
C592        C628   1.475   1_546  S
C593        C634   1.518       .  S
C593        C741   1.470       .  S
C593        C616   1.477   1_556  S
O594        V602   1.887       .  S
O594        C604   1.258       .  A
O595        V602   1.889       .  S
O595        C605   1.258       .  A
O596        V602   1.910       .  S
O596        C606   1.267       .  A
O597        V602   1.910       .  S
O597        C607   1.267       .  A
O598        V603   1.892       .  S
O599        V603   1.891       .  S
O600        V603   1.911       .  S
O601        V603   1.910       .  S
C604        C612   1.432       .  S
C605        C614   1.434       .  S
C606        C615   1.435       .  S
C607        C609   1.436       .  S
C608        C693   1.524       .  S
C608        C610   1.472       .  S
C608        C675   1.470       .  S
C609        C610   1.207       .  T
C611        C736   1.470       .  S
C611        C612   1.205       .  T
C613        C657   1.470       .  S
C613        C614   1.207       .  T
C615        C616   1.207       .  T
C617        C618   1.344   1_556  D
C617        H619   1.088       .  S
C618        H748   1.087       .  S
H620        C682   1.087       .  S
C621        C622   1.343   1_556  D
C621        H751   1.088       .  S
C622        H624   1.088       .  S
H623        C685   1.088       .  S
C625        C626   1.205       .  T
C626        C656   1.468       .  S
C627        C628   1.207       .  T
C629        C736   1.524   1_556  S
C629        C630   1.343   1_556  D
C629        H759   1.087       .  S
C630        H632   1.089       .  S
H631        C693   1.087       .  S
C633        C705   1.522       .  S
C633        C634   1.360   1_554  D
C633        H635   1.088       .  S
C634        H764   1.086       .  S
H636        C698   1.086       .  S
C637        C638   1.207       .  T
C639        C640   1.206       .  T
C641        C761   1.522       .  S
O642        V650   1.888       .  S
O643        V650   1.888       .  S
O644        V650   1.909       .  S
O645        V650   1.909       .  S
O646        V651   1.892       .  S
O646        C655   1.259       .  A
O647        V651   1.892       .  S
O647        C654   1.259       .  A
O648        V651   1.910       .  S
O648        C653   1.267   1_565  A
O649        V651   1.911       .  S
O649        C652   1.267       .  A
C652        C704   1.434   1_565  S
C653        C689   1.433       .  S
C654        C691   1.435       .  S
C655        C702   1.435       .  S
C656        C681   1.525   1_545  S
C656        C692   1.475   1_545  S
C657        C698   1.518       .  S
C657        C680   1.477       .  S
O658        V666   1.887       .  S
O658        C668   1.258       .  A
O659        V666   1.889       .  S
O659        C669   1.258       .  A
O660        V666   1.910       .  S
O660        C670   1.267       .  A
O661        V666   1.910       .  S
O661        C671   1.267       .  A
O662        V667   1.892       .  S
O663        V667   1.891       .  S
O664        V667   1.911       .  S
O665        V667   1.910       .  S
C668        C676   1.432       .  S
C669        C678   1.434       .  S
C670        C679   1.435       .  S
C671        C673   1.436       .  S
C672        C757   1.524       .  S
C672        C674   1.472       .  S
C672        C739   1.470       .  S
C673        C674   1.207       .  T
C675        C676   1.205       .  T
C677        C721   1.470       .  S
C677        C678   1.207       .  T
C679        C680   1.207       .  T
C681        C682   1.344       .  D
C681        H683   1.088       .  S
H684        C746   1.087       .  S
C685        C686   1.343       .  D
C686        H688   1.088       .  S
H687        C749   1.088       .  S
C689        C690   1.205       .  T
C690        C720   1.468       .  S
C691        C692   1.207       .  T
C693        C694   1.343       .  D
C694        H696   1.089       .  S
H695        C757   1.087       .  S
C697        C698   1.360       .  D
C697        H699   1.088       .  S
H700        C762   1.086       .  S
C701        C702   1.207       .  T
C703        C704   1.206       .  T
O706        V714   1.888       .  S
O707        V714   1.888       .  S
O708        V714   1.909       .  S
O709        V714   1.909       .  S
O710        V715   1.892       .  S
O710        C719   1.259       .  A
O711        V715   1.892       .  S
O711        C718   1.259       .  A
O712        V715   1.910       .  S
O712        C717   1.267   1_565  A
O713        V715   1.911       .  S
O713        C716   1.267       .  A
C716        C768   1.434   1_565  S
C717        C753   1.433       .  S
C718        C755   1.435       .  S
C719        C766   1.435       .  S
C720        C745   1.525   1_545  S
C720        C756   1.475   1_545  S
C721        C762   1.518       .  S
C721        C744   1.477       .  S
O722        V730   1.887       .  S
O722        C732   1.258       .  A
O723        V730   1.889       .  S
O723        C733   1.258       .  A
O724        V730   1.910       .  S
O724        C734   1.267       .  A
O725        V730   1.910       .  S
O725        C735   1.267       .  A
O726        V731   1.892       .  S
O727        V731   1.891       .  S
O728        V731   1.911       .  S
O729        V731   1.910       .  S
C732        C740   1.432       .  S
C733        C742   1.434       .  S
C734        C743   1.435       .  S
C735        C737   1.436       .  S
C736        C738   1.472   1_554  S
C737        C738   1.207       .  T
C739        C740   1.205       .  T
C741        C742   1.207       .  T
C743        C744   1.207       .  T
C745        C746   1.344       .  D
C745        H747   1.088       .  S
C749        C750   1.343       .  D
C750        H752   1.088       .  S
C753        C754   1.205       .  T
C755        C756   1.207       .  T
C757        C758   1.343       .  D
C758        H760   1.089       .  S
C761        C762   1.360       .  D
C761        H763   1.088       .  S
C765        C766   1.207       .  T
C767        C768   1.206       .  T
