geometry optimzed in LAMMPS
_audit_creation_date              2020-11-30 
_audit_creation_method            'lammps2cif' 
_symmetry_space_group_name_H-M    'P1' 
_symmetry_Int_Tables_number       1 
_symmetry_cell_setting            triclinic 
loop_ 
_symmetry_equiv_pos_as_xyz 
  x,y,z 
_cell_length_a                    22.55107118 
_cell_length_b                    54.62325996306176 
_cell_length_c                    30.484197006427333 
_cell_angle_alpha                 88.49488636280373 
_cell_angle_beta                  80.5501867781445 
_cell_angle_gamma                 89.90568015971736 
loop_ 
_atom_site_label 
_atom_site_type_symbol 
_atom_site_fract_x 
_atom_site_fract_y 
_atom_site_fract_z 
_atom_site_charge 
N1          N  0.40401969  0.24279584  0.35743599    -0.02900
C2          C  0.46432206  0.24181134  0.35872649    -0.00300
C3          C  0.49524769  0.24798135  0.31639816    -0.23200
C4          C  0.45386971  0.25194035  0.28897302    -0.23400
C5          C  0.39863778  0.24870704  0.31479237    -0.00400
H6          H  0.54246322  0.24995385  0.30463637     0.13400
H7          H  0.46312119  0.25621373  0.25363728     0.13400
N8          N  0.55373626  0.23376351  0.39916047    -0.02900
C9          C  0.49331999  0.23510313  0.39861745    -0.00300
C10         C  0.46304676  0.23137710  0.44181206    -0.23200
C11         C  0.50564997  0.22892174  0.46917745    -0.23400
C12         C  0.56095710  0.23139727  0.44244604    -0.00400
H13         H  0.41547077  0.23166582  0.45381978     0.13400
H14         H  0.49701244  0.22749750  0.50513869     0.13400
N15         N  0.05987525  0.24749089  0.09879080    -0.02900
C16         C  0.99935404  0.24228870  0.10312840    -0.00300
C17         C  0.98405969  0.22682208  0.14043753    -0.23200
C18         C  0.03239123  0.22491051  0.16178505    -0.23400
C19         C  0.07743614  0.23824775  0.13654979    -0.00400
H20         H  0.93976517  0.22167881  0.15652572     0.13400
H21         H  0.03324710  0.21630245  0.19406154     0.13400
N22         N  0.89247389  0.25537647  0.10544986    -0.02900
C23         C  0.95260614  0.26146183  0.09788823    -0.00300
C24         C  0.95931123  0.28150823  0.12368643    -0.23200
C25         C  0.90867579  0.28325906  0.15483106    -0.23400
C26         C  0.86768927  0.26689792  0.14346274    -0.00400
H27         H  0.00039183  0.29051685  0.12682844     0.13400
H28         H  0.90380800  0.29459382  0.18376918     0.13400
N29         N  0.18705835  0.11598265  0.44996112    -0.26700
N30         N  0.20601483  0.12306063  0.40820836    -0.34500
C31         C  0.20836072  0.14760004  0.40538736     0.01700
C32         C  0.19253118  0.15694508  0.44754948     0.07700
C33         C  0.17868927  0.13619997  0.47509184    -0.05400
H34         H  0.22663547  0.15787291  0.37538106     0.08400
H35         H  0.16741460  0.13577295  0.51099605     0.09600
Cu36       Cu  0.24889719  0.10020889  0.35959775     0.44200
Cu37       Cu  0.17876017  0.07842394  0.46841195     0.42000
Cu38       Cu  0.24794195  0.03709320  0.38059657     0.43900
N39         N  0.31854252  0.07795878  0.33069543    -0.34100
N40         N  0.31891744  0.05418875  0.33936276    -0.28300
C41         C  0.37604750  0.04614513  0.33185905    -0.04400
C42         C  0.41416542  0.06594804  0.31915590     0.07800
C43         C  0.37542157  0.08564380  0.31743851     0.01600
H44         H  0.38943291  0.02853789  0.34405455     0.09200
H45         H  0.38828655  0.10475993  0.31636270     0.08300
N46         N  0.19126710  0.02545156  0.43786855    -0.35500
N47         N  0.16989258  0.03986359  0.47106735    -0.27700
C48         C  0.14450457  0.02562572  0.50594931    -0.02900
C49         C  0.14965773  0.00126459  0.49392561     0.05700
C50         C  0.17920804  0.00193505  0.45046573     0.03800
H51         H  0.12577795  0.03243014  0.53828704     0.08900
H52         H  0.19529214  0.98638322  0.43068286     0.07700
N53         N  0.26819119  0.21867892  0.43240681    -0.36000
N54         N  0.16151295  0.22118299  0.00137995    -0.56600
N55         N  0.19573397  0.27008240  0.02248882    -0.36000
N56         N  0.29621238  0.26950057  0.44977595    -0.56600
C57         C  0.25776889  0.19428595  0.43911977     0.27600
C58         C  0.32431479  0.22119846  0.40853324     0.27600
C59         C  0.13939231  0.26884787  0.04671689     0.27600
C60         C  0.21413530  0.29375785  0.02235651     0.27600
C61         C  0.15506531  0.19823672  0.98682002     0.36200
C62         C  0.11339437  0.22559357  0.03316524     0.36200
C63         C  0.34093451  0.26581434  0.41525989     0.36200
C64         C  0.30461504  0.29216746  0.46463778     0.36200
C65         C  0.30857858  0.18151529  0.42021118    -0.21300
C66         C  0.34998819  0.19845551  0.40051777    -0.21300
C67         C  0.12210252  0.29184658  0.06143337    -0.21300
C68         C  0.16840085  0.30754919  0.04575550    -0.21300
C69         C  0.10166520  0.18818667  0.00876315    -0.22300
C70         C  0.07589529  0.20525255  0.03846486    -0.22300
C71         C  0.37758318  0.28628014  0.40769435    -0.22300
C72         C  0.35538484  0.30276376  0.43942756    -0.22300
C73         C  0.20290076  0.18298470  0.45965213    -0.17700
C74         C  0.35424655  0.24334830  0.39394021    -0.17700
C75         C  0.27143841  0.30350428  0.00310909    -0.17700
C76         C  0.10307947  0.24765199  0.05746452    -0.17700
H77         H  0.31572076  0.16192989  0.42096884     0.15200
H78         H  0.39495528  0.19450459  0.38378193     0.15200
H79         H  0.07991467  0.29714597  0.08029863     0.15200
H80         H  0.16776389  0.32710268  0.05061870     0.15200
H81         H  0.08343640  0.17025138  0.00468546     0.13500
H82         H  0.03415135  0.20265947  0.06103279     0.13500
H83         H  0.41811052  0.28862451  0.38347279     0.13500
H84         H  0.37542444  0.32032617  0.44350968     0.13500
H85         H  0.23685042  0.23263175  0.43940223     0.26800
H86         H  0.22270806  0.25536737  0.01117601     0.26800
N87         N  0.30385197  0.36699994  0.02912157    -0.26700
N88         N  0.28717161  0.35699837  0.06918735    -0.34500
C89         C  0.28020174  0.33279338  0.06577821     0.01700
C90         C  0.29021949  0.32700717  0.02121487     0.07700
C91         C  0.30572923  0.34924884  0.99886792    -0.05400
H92         H  0.26098622  0.32080345  0.09327389     0.08400
H93         H  0.31229135  0.35266682  0.96328933     0.09600
Cu94       Cu  0.24640982  0.37652861  0.12278788     0.44200
Cu95       Cu  0.31390506  0.40511133  0.01908416     0.38400
Cu96       Cu  0.24886269  0.44043671  0.11508406     0.43900
N97         N  0.17494851  0.39727195  0.15242370    -0.34100
N98         N  0.17666454  0.42140123  0.15047759    -0.28300
C99         C  0.12026437  0.43002454  0.15574436    -0.04400
C100        C  0.08081985  0.41041183  0.15894808     0.07800
C101        C  0.11723684  0.38989730  0.15828303     0.01600
H102        H  0.10978340  0.44873634  0.14732760     0.09200
H103        H  0.10392874  0.37138905  0.15245221     0.08300
N104        N  0.30008999  0.45582822  0.05867207    -0.35500
N105        N  0.32085183  0.44340057  0.02268008    -0.27700
C106        C  0.34307933  0.45947113  0.98978010    -0.02900
C107        C  0.33608165  0.48300427  0.00595361     0.05700
C108        C  0.30890629  0.47992999  0.04975821     0.03800
H109        H  0.36085110  0.45445945  0.95607937     0.08900
H110        H  0.29276771  0.49423194  0.07253297     0.07700
N111        N  0.67407121  0.26713634  0.49487349    -0.36000
N112        N  0.71328622  0.21727968  0.47354861    -0.56600
N113        N  0.81963116  0.22507304  0.01779314    -0.36000
N114        N  0.77318235  0.27368525  0.04131932    -0.56600
C115        C  0.62322600  0.25810421  0.48295960     0.27600
C116        C  0.65980579  0.28853798  0.51560629     0.27600
C117        C  0.83028290  0.20159226  0.00580601     0.27600
C118        C  0.85472322  0.23035852  0.04846829     0.27600
C119        C  0.66308525  0.21763254  0.45441027     0.36200
C120        C  0.74221361  0.19607008  0.46201122     0.36200
C121        C  0.75443153  0.29716767  0.03912572     0.36200
C122        C  0.82562676  0.27416717  0.05740867     0.36200
C123        C  0.57661874  0.27455696  0.49526544    -0.21300
C124        C  0.59967452  0.29362910  0.51578011    -0.21300
C125        C  0.87468736  0.19209209  0.02784938    -0.21300
C126        C  0.88960232  0.21011353  0.05490729    -0.21300
C127        C  0.65923694  0.19623991  0.43171089    -0.22300
C128        C  0.70921925  0.18272012  0.43616890    -0.22300
C129        C  0.79544088  0.31268928  0.05337141    -0.22300
C130        C  0.84051933  0.29815849  0.06471639    -0.22300
C131        C  0.61818291  0.23600139  0.45985131    -0.17700
C132        C  0.69778793  0.30449789  0.02924312    -0.17700
C133        C  0.85761250  0.25319207  0.06941439    -0.17700
C134        C  0.79565394  0.18756256  0.47665856    -0.17700
H135        H  0.53057046  0.27336927  0.48986068     0.15200
H136        H  0.57479969  0.30942182  0.52937051     0.15200
H137        H  0.89427776  0.17400777  0.02519103     0.15200
H138        H  0.92313874  0.20842006  0.07622692     0.15200
H139        H  0.62319088  0.19049357  0.41494451     0.13500
H140        H  0.71847107  0.16459847  0.42331636     0.13500
H141        H  0.79272663  0.33240078  0.05598024     0.13500
H142        H  0.87976923  0.30468896  0.07690837     0.13500
H143        H  0.71729072  0.26031449  0.48588094     0.26800
H144        H  0.79271342  0.23722426  0.00338661     0.26800
N145        N  0.83722215  0.12442366  0.44984534    -0.26700
N146        N  0.84752781  0.13530483  0.41002547    -0.34500
C147        C  0.83895424  0.15947364  0.41425792     0.01700
C148        C  0.82146264  0.16417457  0.45874521     0.07700
C149        C  0.82080944  0.14154563  0.48052548    -0.05400
H150        H  0.83897942  0.17233251  0.38664285     0.08400
H151        H  0.80568924  0.13764108  0.51555521     0.09600
Cu152      Cu  0.85009962  0.11726232  0.35125793     0.44200
Cu153      Cu  0.84011440  0.08649859  0.45931368     0.42000
Cu154      Cu  0.85987205  0.05375812  0.35616067     0.43900
N155        N  0.80244589  0.09559605  0.31495028    -0.34100
N156        N  0.80759839  0.07155418  0.31591812    -0.28300
C157        C  0.75539561  0.06158564  0.30974788    -0.04400
C158        C  0.71394647  0.08008127  0.30671164     0.07800
C159        C  0.74651509  0.10145736  0.30853378     0.01600
H160        H  0.74407250  0.04267025  0.31876094     0.09200
H161        H  0.72702355  0.11921633  0.31652473     0.08300
N162        N  0.86335919  0.03708163  0.41729846    -0.35500
N163        N  0.85266133  0.04871123  0.45530367    -0.27700
C164        C  0.84658937  0.03206620  0.48908558    -0.02900
C165        C  0.85340941  0.00890639  0.47141577     0.05700
C166        C  0.86422515  0.01281578  0.42584722     0.03800
H167        H  0.83466194  0.03645660  0.52381732     0.08900
H168        H  0.86766457  0.99903305  0.40071712     0.07700
N169        N  0.65064315  0.36813936  0.04949801    -0.26700
N170        N  0.64864925  0.35922811  0.09052570    -0.34500
C171        C  0.66269743  0.33535056  0.08917331     0.01700
C172        C  0.67398914  0.32863340  0.04532194     0.07700
C173        C  0.66569631  0.34981161  0.02084951    -0.05400
H174        H  0.66853509  0.32409063  0.11788767     0.08400
H175        H  0.67347988  0.35203254  0.98498979     0.09600
Cu176      Cu  0.64528955  0.38022229  0.14610594     0.44200
Cu177      Cu  0.64029130  0.40566478  0.03551499     0.42000
Cu178      Cu  0.63996938  0.44390995  0.13093022     0.43900
N179        N  0.69673708  0.40330637  0.17675659    -0.34100
N180        N  0.69630991  0.42720895  0.16947652    -0.28300
C181        C  0.75172607  0.43603512  0.16983618    -0.04400
C182        C  0.78965535  0.41680142  0.17624590     0.07800
C183        C  0.75223100  0.39648166  0.18256322     0.01600
H184        H  0.76629236  0.45366963  0.15504827     0.09200
H185        H  0.76749675  0.37774789  0.17907474     0.08300
N186        N  0.62496604  0.45745420  0.06982210    -0.35500
N187        N  0.62910254  0.44389130  0.03410490    -0.27700
C188        C  0.63067218  0.45890301  0.99814319    -0.02900
C189        C  0.62722231  0.48296117  0.01197665     0.05700
C190        C  0.62333433  0.48128006  0.05764863     0.03800
H191        H  0.63757444  0.45282977  0.96419084     0.08900
H192        H  0.62520100  0.49627943  0.07987377     0.07700
O193        O  0.61908275  0.09669642  0.33741551    -0.72300
O194        O  0.47565059  0.09146008  0.94177507    -0.73300
O195        O  0.60025418  0.09826108  0.93505780    -0.61900
O196        O  0.49123401  0.08978844  0.34111255    -0.70300
O197        O  0.50007619  0.04934923  0.34581755    -0.69900
O198        O  0.61219600  0.05789752  0.93731768    -0.61200
O199        O  0.48636900  0.05105977  0.94388990    -0.73700
O200        O  0.62981945  0.05632063  0.34072370    -0.72400
Cu201      Cu  0.54482840  0.09655436  0.89123468     1.04600
Cu202      Cu  0.55552061  0.05331770  0.89308461     1.04300
C203        C  0.65019025  0.07752049  0.32719891     0.93900
C204        C  0.46053262  0.07043507  0.95974814     0.93000
C205        C  0.62326018  0.07924939  0.95042707     0.85100
C206        C  0.47313629  0.06839019  0.33370605     0.91400
N207        N  0.28210795  0.11790821  0.20776399    -0.26700
N208        N  0.30766599  0.12550603  0.16770995    -0.34500
C209        C  0.30694310  0.14993768  0.16513222     0.01700
C210        C  0.27815239  0.15818369  0.20530036     0.07700
C211        C  0.26330509  0.13750456  0.23201720    -0.05400
H212        H  0.32266939  0.16080153  0.13530834     0.08400
H213        H  0.23850895  0.13672315  0.26557045     0.09600
Cu214      Cu  0.33391703  0.10300103  0.11610704     0.44200
Cu215      Cu  0.27140797  0.08114122  0.22320593     0.42000
Cu216      Cu  0.32681059  0.03941979  0.12717547     0.43900
N217        N  0.36422784  0.08132827  0.06403174    -0.34100
N218        N  0.36537783  0.05721166  0.06705234    -0.28300
C219        C  0.39702711  0.04893611  0.02871086    -0.04400
C220        C  0.41570452  0.06909358  0.00077144     0.07800
C221        C  0.39365651  0.08915337  0.02445752     0.01600
H222        H  0.40863712  0.02995566  0.02267319     0.09200
H223        H  0.40254233  0.10821368  0.01514972     0.08300
N224        N  0.28643722  0.02864581  0.19223641    -0.35500
N225        N  0.26864888  0.04342905  0.22569846    -0.27700
C226        C  0.24897905  0.03000634  0.26278933    -0.02900
C227        C  0.25385204  0.00567218  0.25243792     0.05700
C228        C  0.27748842  0.00538364  0.20758052     0.03800
H229        H  0.23239823  0.03748077  0.29496747     0.08900
H230        H  0.29022431  0.98945869  0.18804876     0.07700
N231        N  0.19238796  0.37149919  0.26024983    -0.26700
N232        N  0.17513188  0.36084047  0.29973617    -0.34500
C233        C  0.17741745  0.33646038  0.29572499     0.01700
C234        C  0.19685520  0.33133203  0.25163761     0.07700
C235        C  0.20638292  0.35392543  0.22997641    -0.05400
H236        H  0.16885586  0.32338715  0.32332762     0.08400
H237        H  0.22532883  0.35725254  0.19546470     0.09600
Cu238      Cu  0.15438135  0.37899038  0.35883599     0.44200
Cu239      Cu  0.19951357  0.40948721  0.25145518     0.42000
Cu240      Cu  0.16409195  0.44341839  0.35536929     0.43900
N241        N  0.13254106  0.39975993  0.41476856    -0.34100
N242        N  0.13656564  0.42386898  0.41349396    -0.28300
C243        C  0.11136918  0.43253262  0.45303109    -0.04400
C244        C  0.09023858  0.41282193  0.48042068     0.07800
C245        C  0.10474363  0.39231223  0.45524431     0.01600
H246        H  0.10406304  0.45174132  0.45985462     0.09200
H247        H  0.09126441  0.37360488  0.46426189     0.08300
N248        N  0.18327565  0.45944742  0.29299966    -0.35500
N249        N  0.19716642  0.44761098  0.25538086    -0.27700
C250        C  0.20566577  0.46418535  0.22146337    -0.02900
C251        C  0.19561778  0.48725826  0.23867039     0.05700
C252        C  0.18176091  0.48359718  0.28405808     0.03800
H253        H  0.21729255  0.45983744  0.18681684     0.08900
H254        H  0.17048980  0.49738652  0.30888064     0.07700
N255        N  0.28291288  0.21947026  0.25744488    -0.36000
N256        N  0.20835508  0.21906126  0.18702035    -0.56600
N257        N  0.19265366  0.27193199  0.19079261    -0.36000
N258        N  0.27449142  0.27238499  0.25729536    -0.56600
C259        C  0.28867796  0.19562282  0.24668346     0.27600
C260        C  0.32529337  0.22427269  0.28283320     0.27600
C261        C  0.14333694  0.26497822  0.17387837     0.27600
C262        C  0.17943302  0.29367099  0.21074823     0.27600
C263        C  0.22366925  0.19515204  0.18702045     0.36200
C264        C  0.17173041  0.22198103  0.15633390     0.36200
C265        C  0.31957793  0.27005737  0.28131279     0.36200
C266        C  0.26621912  0.29662110  0.25134103     0.36200
C267        C  0.33230093  0.18479750  0.26794232    -0.21300
C268        C  0.35562075  0.20283389  0.29029161    -0.21300
C269        C  0.09928292  0.28265658  0.18282384    -0.21300
C270        C  0.12220758  0.30090669  0.20528912    -0.21300
C271        C  0.19694968  0.18299684  0.15583720    -0.22300
C272        C  0.16459404  0.19998383  0.13626952    -0.22300
C273        C  0.34059310  0.29295154  0.29010160    -0.22300
C274        C  0.30670673  0.30977739  0.27120322    -0.22300
C275        C  0.26090697  0.18376075  0.21468017    -0.17700
C276        C  0.34293255  0.24766908  0.29510639    -0.17700
C277        C  0.21668900  0.30694256  0.23488349    -0.17700
C278        C  0.13567236  0.24271148  0.15229992    -0.17700
H279        H  0.34896624  0.16622270  0.26517601     0.15200
H280        H  0.39390617  0.20064076  0.30717679     0.15200
H281        H  0.05379966  0.28171340  0.17677645     0.15200
H282        H  0.09819680  0.31704657  0.21818303     0.15200
H283        H  0.19861037  0.16368835  0.14875269     0.13500
H284        H  0.13620215  0.19621646  0.11191492     0.13500
H285        H  0.37608284  0.29713157  0.30870456     0.13500
H286        H  0.31023120  0.32947357  0.27300838     0.13500
H287        H  0.25243450  0.23169373  0.24733521     0.26800
H288        H  0.23382827  0.26290362  0.18750787     0.26800
N289        N  0.73264520  0.23101646  0.20802662    -0.36000
N290        N  0.65486749  0.21858538  0.29322773    -0.56600
N291        N  0.66910339  0.26888815  0.32073891    -0.36000
N292        N  0.74405591  0.28081708  0.23553462    -0.56600
C293        C  0.72939144  0.20620973  0.20760589     0.27600
C294        C  0.78434874  0.23791067  0.18071416     0.27600
C295        C  0.62630477  0.26099597  0.35459458     0.27600
C296        C  0.67359613  0.29347126  0.32431369     0.27600
C297        C  0.64721018  0.19783803  0.27135093     0.36200
C298        C  0.61449066  0.21778268  0.33141000     0.36200
C299        C  0.77757447  0.28252813  0.19450536     0.36200
C300        C  0.73752711  0.30378792  0.25102222     0.36200
C301        C  0.77868256  0.19730741  0.17964911    -0.21300
C302        C  0.81284711  0.21710413  0.16300206    -0.21300
C303        C  0.60400104  0.28066059  0.37989081    -0.21300
C304        C  0.63407965  0.30102571  0.36123034    -0.21300
C305        C  0.60172070  0.18376653  0.29583314    -0.22300
C306        C  0.58145758  0.19627142  0.33396107    -0.22300
C307        C  0.78954360  0.30695740  0.18298887    -0.22300
C308        C  0.76555231  0.32030547  0.21902370    -0.22300
C309        C  0.68260371  0.19111509  0.23057039    -0.17700
C310        C  0.80624778  0.26235188  0.17137345    -0.17700
C311        C  0.70949404  0.30987310  0.29438193    -0.17700
C312        C  0.60189236  0.23713665  0.36190336    -0.17700
H313        H  0.78963897  0.17839007  0.17236530     0.15200
H314        H  0.85348963  0.21578180  0.13991460     0.15200
H315        H  0.56712073  0.28068478  0.40739690     0.15200
H316        H  0.62505241  0.31953924  0.37221717     0.15200
H317        H  0.58433911  0.16642241  0.28717943     0.13500
H318        H  0.54491343  0.19058580  0.35981076     0.13500
H319        H  0.81582129  0.31441975  0.15277744     0.13500
H320        H  0.77005458  0.33985820  0.22137192     0.13500
H321        H  0.69885270  0.24239138  0.22342082     0.26800
H322        H  0.69519413  0.25806160  0.29771855     0.26800
N323        N  0.67527947  0.12664643  0.19912185    -0.26700
N324        N  0.67670212  0.13806359  0.16017591    -0.34500
C325        C  0.67540962  0.16236978  0.16613499     0.01700
C326        C  0.67370387  0.16675530  0.21097177     0.07700
C327        C  0.67351107  0.14356251  0.23086167    -0.05400
H328        H  0.67878895  0.17598103  0.13939237     0.08400
H329        H  0.67505327  0.13936666  0.26545491     0.09600
Cu330      Cu  0.68580837  0.12031658  0.09977421     0.44200
Cu331      Cu  0.68191349  0.08849695  0.20520856     0.42000
Cu332      Cu  0.71902359  0.05597332  0.10088798     0.43900
N333        N  0.68713234  0.09814033  0.04512430    -0.34100
N334        N  0.69869660  0.07442245  0.04589469    -0.28300
C335        C  0.68272406  0.06419736  0.00991787    -0.04400
C336        C  0.65995687  0.08239528  0.98528915     0.07800
C337        C  0.66427468  0.10372639  0.00814460     0.01600
H338        H  0.68173277  0.04468718  0.00474735     0.09200
H339        H  0.64568940  0.12140816  0.00114148     0.08300
N340        N  0.71429938  0.03943610  0.16249342    -0.35500
N341        N  0.69716097  0.05074948  0.20029087    -0.27700
C342        C  0.69140254  0.03392993  0.23367713    -0.02900
C343        C  0.70689850  0.01129334  0.21627596     0.05700
C344        C  0.72077939  0.01537823  0.17093147     0.03800
H345        H  0.67478804  0.03761475  0.26792181     0.08900
H346        H  0.73264044  0.00182645  0.14574254     0.07700
N347        N  0.71819252  0.37469810  0.32095735    -0.26700
N348        N  0.73890518  0.36406369  0.35475943    -0.34500
C349        C  0.73987953  0.33974396  0.34971653     0.01700
C350        C  0.71856809  0.33472935  0.31085884     0.07700
C351        C  0.70459207  0.35734232  0.29361830    -0.05400
H352        H  0.75444710  0.32659885  0.37288826     0.08400
H353        H  0.68575674  0.36093793  0.26366605     0.09600
Cu354      Cu  0.76465716  0.38305356  0.40617999     0.44200
Cu355      Cu  0.71377617  0.41238308  0.31351621     0.42000
Cu356      Cu  0.77031041  0.44911889  0.39718594     0.43900
N357        N  0.79438072  0.40484916  0.45240422    -0.34100
N358        N  0.79772207  0.42900783  0.44913119    -0.28300
C359        C  0.82653495  0.43713349  0.48129557    -0.04400
C360        C  0.84201965  0.41704414  0.50568631     0.07800
C361        C  0.82052305  0.39695032  0.48665125     0.01600
H362        H  0.83885510  0.45604225  0.48471446     0.09200
H363        H  0.82724583  0.37787228  0.49495635     0.08300
N364        N  0.74504018  0.46344755  0.33913176    -0.35500
N365        N  0.72514826  0.45002592  0.30903854    -0.27700
C366        C  0.71919685  0.46435710  0.27356193    -0.02900
C367        C  0.73600427  0.48784458  0.28152808     0.05700
C368        C  0.75169142  0.48674327  0.32353126     0.03800
H369        H  0.70492170  0.45803405  0.24375838     0.08900
H370        H  0.77062079  0.50134254  0.34016122     0.07700
O371        O  0.89961361  0.39579680  0.55287480    -0.72300
O372        O  0.02382372  0.39312594  0.63288369    -0.73300
O373        O  0.89587136  0.39486704  0.64562135    -0.61900
O374        O  0.02598920  0.39362893  0.54033241    -0.70300
O375        O  0.03054267  0.43428452  0.53843798    -0.69900
O376        O  0.89827553  0.43554307  0.64362566    -0.61200
O377        O  0.02685563  0.43378880  0.63151696    -0.73700
O378        O  0.90386863  0.43644476  0.55054467    -0.72400
Cu379      Cu  0.96123460  0.39296859  0.59340558     1.04600
Cu380      Cu  0.96509667  0.43645923  0.59145989     1.04300
C381        C  0.88313431  0.41645511  0.53833704     0.93900
C382        C  0.04720284  0.41311173  0.64269784     0.93000
C383        C  0.87351313  0.41536418  0.65893433     0.85100
C384        C  0.04774845  0.41365513  0.52210128     0.91400
N385        N  0.38366855  0.75234548  0.10135601    -0.02900
C386        C  0.44292103  0.75960274  0.09349471    -0.00300
C387        C  0.44726633  0.78017440  0.11853853    -0.23200
C388        C  0.39612700  0.78155444  0.14929798    -0.23400
C389        C  0.35738459  0.76404939  0.13862062    -0.00400
H390        H  0.48704337  0.79033077  0.12080298     0.13400
H391        H  0.38923783  0.79360165  0.17727441     0.13400
N392        N  0.55169343  0.74775315  0.09338387    -0.02900
C393        C  0.49171930  0.74149588  0.09896619    -0.00300
C394        C  0.47877494  0.72626575  0.13676055    -0.23200
C395        C  0.52815377  0.72554772  0.15726146    -0.23400
C396        C  0.57136486  0.73934775  0.13094055    -0.00400
H397        H  0.43501163  0.72039999  0.15320459     0.13400
H398        H  0.53074222  0.71748031  0.18970240     0.13400
N399        N  0.04425874  0.73316802  0.39445951    -0.02900
C400        C  0.98409048  0.73583988  0.39350085    -0.00300
C401        C  0.95284631  0.73211955  0.43635812    -0.23200
C402        C  0.99452676  0.72805044  0.46395957    -0.23400
C403        C  0.05046135  0.72985631  0.43784386    -0.00400
H404        H  0.90538700  0.73367103  0.44809763     0.13400
H405        H  0.98513048  0.72654566  0.49990333     0.13400
N406        N  0.89606715  0.74562390  0.35180169    -0.02900
C407        C  0.95618524  0.74361616  0.35358500    -0.00300
C408        C  0.98815802  0.74903127  0.31127541    -0.23200
C409        C  0.94760847  0.75342704  0.28334172    -0.23400
C410        C  0.89183099  0.75118019  0.30878817    -0.00400
H411        H  0.03560587  0.74984381  0.29971151     0.13400
H412        H  0.95774232  0.75700939  0.24780883     0.13400
N413        N  0.21895490  0.87128674  0.31628635    -0.26700
N414        N  0.23938057  0.85982173  0.34950060    -0.34500
C415        C  0.23906068  0.83564703  0.34296492     0.01700
C416        C  0.21714705  0.83162293  0.30393440     0.07700
C417        C  0.20427357  0.85464816  0.28805023    -0.05400
H418        H  0.25229651  0.82188039  0.36562156     0.08400
H419        H  0.18420373  0.85903076  0.25894139     0.09600
Cu420      Cu  0.26565246  0.87687915  0.40328661     0.44200
Cu421      Cu  0.21375539  0.90895350  0.31027748     0.42000
Cu422      Cu  0.26843022  0.94244193  0.39713996     0.43900
N423        N  0.29789652  0.89805324  0.44984786    -0.34100
N424        N  0.29877109  0.92224704  0.44745796    -0.28300
C425        C  0.32820446  0.93070235  0.47894574    -0.04400
C426        C  0.34696285  0.91087074  0.50221337     0.07800
C427        C  0.32672864  0.89043953  0.48303536     0.01600
H428        H  0.33824329  0.94980725  0.48284781     0.09200
H429        H  0.33532599  0.87146015  0.49089608     0.08300
N430        N  0.24695978  0.95870762  0.33962743    -0.35500
N431        N  0.22626093  0.94647590  0.30844473    -0.27700
C432        C  0.22208209  0.96180611  0.27396266    -0.02900
C433        C  0.24201321  0.98457161  0.28337405     0.05700
C434        C  0.25677186  0.98213381  0.32552923     0.03800
H435        H  0.20628589  0.95673634  0.24407378     0.08900
H436        H  0.27696842  0.99587351  0.34335118     0.07700
N437        N  0.22130360  0.72853611  0.20191410    -0.36000
N438        N  0.14456609  0.71689536  0.28884831    -0.56600
N439        N  0.16245230  0.76668480  0.31541041    -0.36000
N440        N  0.23425146  0.77797844  0.22873020    -0.56600
C441        C  0.21804119  0.70378961  0.20316989     0.27600
C442        C  0.27397250  0.73496105  0.17540456     0.27600
C443        C  0.11939722  0.75938744  0.34964299     0.27600
C444        C  0.16817097  0.79125464  0.31820970     0.27600
C445        C  0.13525921  0.69637835  0.26693361     0.36200
C446        C  0.10449774  0.71638632  0.32720389     0.36200
C447        C  0.26480691  0.77941348  0.18676999     0.36200
C448        C  0.22770792  0.80107068  0.24330304     0.36200
C449        C  0.26823472  0.69434946  0.17680452    -0.21300
C450        C  0.30353492  0.71388808  0.15983931    -0.21300
C451        C  0.09831340  0.77941567  0.37429724    -0.21300
C452        C  0.12938351  0.79939384  0.35496947    -0.21300
C453        C  0.08900586  0.68272917  0.29154632    -0.22300
C454        C  0.07002726  0.69526517  0.32986839    -0.22300
C455        C  0.27428934  0.80373598  0.17356045    -0.22300
C456        C  0.25211574  0.81741189  0.20963948    -0.22300
C457        C  0.17024665  0.68932403  0.22626428    -0.17700
C458        C  0.29533804  0.75932372  0.16512269    -0.17700
C459        C  0.20393323  0.80724493  0.28743527    -0.17700
C460        C  0.09321634  0.73585731  0.35749904    -0.17700
H461        H  0.27907920  0.67525981  0.17113705     0.15200
H462        H  0.34587526  0.71229896  0.13837306     0.15200
H463        H  0.06119211  0.77998319  0.40149085     0.15200
H464        H  0.12112313  0.81809281  0.36513739     0.15200
H465        H  0.07045341  0.66560930  0.28289352     0.13500
H466        H  0.03333040  0.68992037  0.35586520     0.13500
H467        H  0.29863850  0.81087322  0.14235481     0.13500
H468        H  0.25566773  0.83704242  0.21083689     0.13500
H469        H  0.18695484  0.74010672  0.21588546     0.26800
H470        H  0.18799745  0.75557704  0.29259821     0.26800
N471        N  0.16171433  0.62518158  0.19581959    -0.26700
N472        N  0.16270048  0.63646945  0.15682393    -0.34500
C473        C  0.16127096  0.66075759  0.16250297     0.01700
C474        C  0.15997079  0.66516023  0.20720005     0.07700
C475        C  0.16019765  0.64211381  0.22737556    -0.05400
H476        H  0.16501498  0.67430390  0.13563195     0.08400
H477        H  0.16300877  0.63800850  0.26184683     0.09600
Cu478      Cu  0.17407435  0.61883538  0.09665196     0.44200
Cu479      Cu  0.17010294  0.58740389  0.20240303     0.42000
Cu480      Cu  0.21124686  0.55515524  0.09794417     0.43900
N481        N  0.18011541  0.59715435  0.04136292    -0.34100
N482        N  0.19313414  0.57357160  0.04194972    -0.28300
C483        C  0.17903333  0.56339513  0.00529994    -0.04400
C484        C  0.15580680  0.58148592  0.98059005     0.07800
C485        C  0.15818905  0.60272255  0.00401003     0.01600
H486        H  0.17892326  0.54389841  0.99987477     0.09200
H487        H  0.13818826  0.62017328  0.99736752     0.08300
N488        N  0.20459435  0.53871090  0.16004496    -0.35500
N489        N  0.18665083  0.55000593  0.19775654    -0.27700
C490        C  0.18077259  0.53333252  0.23137052    -0.02900
C491        C  0.19678372  0.51071145  0.21407933     0.05700
C492        C  0.21124035  0.51471376  0.16875271     0.03800
H493        H  0.16387925  0.53718901  0.26561976     0.08900
H494        H  0.22378244  0.50112476  0.14377596     0.07700
N495        N  0.33146333  0.62277311  0.45007057    -0.26700
N496        N  0.33803004  0.63322613  0.40990091    -0.34500
C497        C  0.32658287  0.65725834  0.41350483     0.01700
C498        C  0.31113743  0.66238179  0.45799632     0.07700
C499        C  0.31485408  0.64009941  0.48038899    -0.05400
H500        H  0.32375072  0.66964769  0.38564248     0.08400
H501        H  0.30263813  0.63650357  0.51579068     0.09600
Cu502      Cu  0.33952955  0.61441464  0.35209785     0.44200
Cu503      Cu  0.33844685  0.58484567  0.46059774     0.42000
Cu504      Cu  0.34361419  0.55084030  0.35928671     0.43900
N505        N  0.28819926  0.59321203  0.31785847    -0.34100
N506        N  0.29067241  0.56910389  0.32003109    -0.28300
C507        C  0.23721361  0.55998833  0.31475281    -0.04400
C508        C  0.19789607  0.57918849  0.31095407     0.07800
C509        C  0.23280174  0.60000549  0.31151106     0.01600
H510        H  0.22388996  0.54133243  0.32440637     0.09200
H511        H  0.21545642  0.61825328  0.31813535     0.08300
N512        N  0.35518093  0.53483443  0.41944750    -0.35500
N513        N  0.34982077  0.54677197  0.45711399    -0.27700
C514        C  0.34818880  0.53028505  0.49098445    -0.02900
C515        C  0.35258314  0.50696511  0.47366220     0.05700
C516        C  0.35721023  0.51062766  0.42825240     0.03800
H517        H  0.34114038  0.53486797  0.52576530     0.08900
H518        H  0.35718829  0.49668806  0.40369557     0.07700
N519        N  0.15208991  0.86680407  0.05183973    -0.26700
N520        N  0.15159664  0.85769155  0.09259456    -0.34500
C521        C  0.16183317  0.83348922  0.09068827     0.01700
C522        C  0.16849551  0.82678317  0.04682166     0.07700
C523        C  0.16207581  0.84833506  0.02293507    -0.05400
H524        H  0.16784831  0.82185517  0.11890291     0.08400
H525        H  0.16778181  0.85063161  0.98712976     0.09600
Cu526      Cu  0.15193238  0.87844193  0.14833477     0.44200
Cu527      Cu  0.14659552  0.90450640  0.03745427     0.42000
Cu528      Cu  0.13955252  0.94240855  0.13258396     0.43900
N529        N  0.19889664  0.90295556  0.17991874    -0.34100
N530        N  0.19603685  0.92672930  0.17180694    -0.28300
C531        C  0.25034765  0.93661813  0.17198566    -0.04400
C532        C  0.28997923  0.91837738  0.18004076     0.07800
C533        C  0.25469567  0.89742420  0.18698741     0.01600
H534        H  0.26319782  0.95418079  0.15616647     0.09200
H535        H  0.27212995  0.87896910  0.18464120     0.08300
N536        N  0.13404362  0.95645943  0.07005297    -0.35500
N537        N  0.14083653  0.94289518  0.03427620    -0.27700
C538        C  0.14771347  0.95792550  0.99799406    -0.02900
C539        C  0.14495313  0.98198855  0.01181743     0.05700
C540        C  0.13613725  0.98029896  0.05769030     0.03800
H541        H  0.15672623  0.95181151  0.96408600     0.08900
H542        H  0.13611150  0.99523098  0.08032416     0.07700
N543        N  0.20345026  0.71608527  0.47029059    -0.36000
N544        N  0.30471205  0.72136501  0.01912736    -0.56600
N545        N  0.26255935  0.77038225  0.04048014    -0.36000
N546        N  0.15686109  0.76410992  0.49835866    -0.56600
C547        C  0.23147288  0.69434945  0.46123805     0.27600
C548        C  0.15199166  0.71609977  0.45240777     0.27600
C549        C  0.31787533  0.77051429  0.05224268     0.27600
C550        C  0.24573654  0.79408738  0.03674581     0.27600
C551        C  0.31610827  0.69819555  0.00589465     0.36200
C552        C  0.34396002  0.72667028  0.04664174     0.36200
C553        C  0.10922648  0.75648459  0.48058660     0.36200
C554        C  0.14111742  0.78554254  0.51829556     0.36200
C555        C  0.19738094  0.68054457  0.43680622    -0.21300
C556        C  0.14765505  0.69415543  0.43138245    -0.21300
C557        C  0.33674816  0.79448456  0.05490883    -0.21300
C558        C  0.29119951  0.80934885  0.04533732    -0.21300
C559        C  0.36411767  0.68895285  0.02441657    -0.22300
C560        C  0.38100439  0.70688329  0.05078018    -0.22300
C561        C  0.06322988  0.77362321  0.48898404    -0.22300
C562        C  0.08342017  0.79190077  0.51286934    -0.22300
C563        C  0.28509679  0.68581479  0.47604338    -0.17700
C564        C  0.10666943  0.73450155  0.45665674    -0.17700
C565        C  0.18846153  0.80234192  0.02987398    -0.17700
C566        C  0.34875605  0.74967994  0.06570741    -0.17700
H567        H  0.20571629  0.66205468  0.42553578     0.15200
H568        H  0.11133943  0.68811030  0.41509510     0.15200
H569        H  0.37866122  0.80078405  0.06338315     0.15200
H570        H  0.29110235  0.82916710  0.04549577     0.15200
H571        H  0.38460146  0.67108812  0.02004665     0.13500
H572        H  0.41721231  0.70563209  0.06987914     0.13500
H573        H  0.01950729  0.77338445  0.47888203     0.13500
H574        H  0.05856547  0.80808003  0.52452658     0.13500
H575        H  0.21878648  0.73004582  0.48769881     0.26800
H576        H  0.23455095  0.75516674  0.04193686     0.26800
N577        N  0.75811006  0.72212921  0.42500831    -0.36000
N578        N  0.78481163  0.77293112  0.44161594    -0.56600
N579        N  0.68180167  0.77211872  0.01225362    -0.36000
N580        N  0.65106606  0.72207023  0.99422323    -0.56600
C581        C  0.81525630  0.72444770  0.40280165     0.27600
C582        C  0.74753550  0.69780794  0.43242689     0.27600
C583        C  0.69868063  0.79603186  0.01165938     0.27600
C584        C  0.62781436  0.76996289  0.03962461     0.27600
C585        C  0.83028178  0.76921594  0.40760151     0.36200
C586        C  0.79145479  0.79591304  0.45564012     0.36200
C587        C  0.64475995  0.69907442  0.97975790     0.36200
C588        C  0.60333382  0.72637359  0.02641283     0.36200
C589        C  0.84137865  0.70165064  0.39678643    -0.21300
C590        C  0.79908116  0.68487618  0.41572151    -0.21300
C591        C  0.65401297  0.80904520  0.03797289    -0.21300
C592        C  0.61047035  0.79261494  0.05607959    -0.21300
C593        C  0.86559045  0.79001884  0.39933755    -0.22300
C594        C  0.84171915  0.80677199  0.43015218    -0.22300
C595        C  0.59182453  0.68888468  0.00213122    -0.22300
C596        C  0.56641447  0.70584208  0.03215356    -0.22300
C597        C  0.84542264  0.74647462  0.38773060    -0.17700
C598        C  0.69202107  0.68664310  0.45167375    -0.17700
C599        C  0.59339102  0.74830193  0.05126377    -0.17700
C600        C  0.75408799  0.80660065  0.98991772    -0.17700
H601        H  0.88705029  0.69755856  0.38176181     0.15200
H602        H  0.80599855  0.66529316  0.41746334     0.15200
H603        H  0.65238228  0.82852255  0.04359370     0.15200
H604        H  0.57011820  0.79717951  0.07809980     0.15200
H605        H  0.90640499  0.79239655  0.37540756     0.13500
H606        H  0.86058443  0.82463391  0.43364125     0.13500
H607        H  0.57371867  0.67090626  0.99829671     0.13500
H608        H  0.52534562  0.70297213  0.05528509     0.13500
H609        H  0.72631581  0.73604135  0.43030601     0.26800
H610        H  0.70852801  0.75781427  0.99883036     0.26800
N611        N  0.78873624  0.87068007  0.01277490    -0.26700
N612        N  0.77494727  0.86092777  0.05333443    -0.34500
C613        C  0.76614590  0.83677562  0.05076915     0.01700
C614        C  0.77212542  0.83069903  0.00646423     0.07700
C615        C  0.78705409  0.85275383  0.98316966    -0.05400
H616        H  0.75000198  0.82490473  0.07919416     0.08400
H617        H  0.79227566  0.85583267  0.94754043     0.09600
Cu618      Cu  0.74434856  0.88080553  0.10931238     0.44200
Cu619      Cu  0.80372228  0.90864772  0.00200860     0.42000
Cu620      Cu  0.75203999  0.94426954  0.10145342     0.43900
N621        N  0.67866505  0.90243708  0.14450176    -0.34100
N622        N  0.68127426  0.92652987  0.14106301    -0.28300
C623        C  0.62524124  0.93559438  0.14932369    -0.04400
C624        C  0.58484558  0.91623715  0.15650260     0.07800
C625        C  0.62079607  0.89553480  0.15497436     0.01600
H626        H  0.61446017  0.95418773  0.14036333     0.09200
H627        H  0.60581972  0.87701363  0.15111969     0.08300
N628        N  0.80343446  0.95865577  0.04431407    -0.35500
N629        N  0.81954480  0.94646795  0.00726662    -0.27700
C630        C  0.84416288  0.96250631  0.97496772    -0.02900
C631        C  0.84335477  0.98572004  0.99269472     0.05700
C632        C  0.81747553  0.98246628  0.03671614     0.03800
H633        H  0.85926187  0.95780062  0.94069940     0.08900
H634        H  0.80581046  0.99661472  0.06078835     0.07700
N635        N  0.67790255  0.61973457  0.44223590    -0.26700
N636        N  0.69689082  0.62673352  0.40043012    -0.34500
C637        C  0.69900243  0.65127665  0.39744353     0.01700
C638        C  0.68229275  0.66064454  0.43948474     0.07700
C639        C  0.66878419  0.63997712  0.46714185    -0.05400
H640        H  0.71758500  0.66154497  0.36749681     0.08400
H641        H  0.65760036  0.63962338  0.50304571     0.09600
Cu642      Cu  0.73909942  0.60387854  0.35172725     0.44200
Cu643      Cu  0.67244848  0.58243221  0.46225217     0.42000
Cu644      Cu  0.74022131  0.54129830  0.37421696     0.43900
N645        N  0.80802711  0.58176804  0.32167278    -0.34100
N646        N  0.80792319  0.55793881  0.32967053    -0.28300
C647        C  0.86474218  0.54970570  0.32225325    -0.04400
C648        C  0.90332979  0.56949021  0.31146161     0.07800
C649        C  0.86516807  0.58936458  0.30950827     0.01600
H650        H  0.87739488  0.53205678  0.33476150     0.09200
H651        H  0.87825390  0.60840344  0.30995589     0.08300
N652        N  0.69234774  0.52943200  0.43468754    -0.35500
N653        N  0.67093730  0.54383929  0.46785599    -0.27700
C654        C  0.65054166  0.52956229  0.50402956    -0.02900
C655        C  0.65912414  0.50518524  0.49270200     0.05700
C656        C  0.68555912  0.50590080  0.44855028     0.03800
H657        H  0.63197676  0.53640354  0.53637355     0.08900
H658        H  0.70199757  0.49047021  0.42857931     0.07700
O659        O  0.10438166  0.59734545  0.34141857    -0.72300
O660        O  0.97051265  0.59053743  0.93824984    -0.73300
O661        O  0.09564139  0.59690756  0.93009939    -0.61900
O662        O  0.97733529  0.59238487  0.33935676    -0.70300
O663        O  0.98368063  0.55182486  0.34308103    -0.69900
O664        O  0.10664723  0.55653660  0.93422597    -0.61200
O665        O  0.98042642  0.55013532  0.94297138    -0.73700
O666        O  0.11134328  0.55679429  0.34363456    -0.72400
Cu667      Cu  0.03895507  0.59451268  0.88707104     1.04600
Cu668      Cu  0.04805778  0.55125310  0.89160224     1.04300
C669        C  0.13388250  0.57775402  0.33103059     0.93900
C670        C  0.95486558  0.56983301  0.95733374     0.93000
C671        C  0.11860928  0.57804851  0.94608912     0.85100
C672        C  0.95959728  0.57129995  0.32982762     0.91400
N673        N  0.77087458  0.62070324  0.19989113    -0.26700
N674        N  0.80268538  0.62735424  0.16122860    -0.34500
C675        C  0.80701489  0.65172603  0.15782921     0.01700
C676        C  0.77479346  0.66108406  0.19584250     0.07700
C677        C  0.75275040  0.64101761  0.22231220    -0.05400
H678        H  0.82855452  0.66186853  0.12856950     0.08400
H679        H  0.72403434  0.64121667  0.25443182     0.09600
Cu680      Cu  0.82966010  0.60390948  0.11176177     0.44200
Cu681      Cu  0.75451610  0.58398267  0.21571260     0.42000
Cu682      Cu  0.81572901  0.54068019  0.12293224     0.43900
N683        N  0.85772826  0.58200422  0.06011201    -0.34100
N684        N  0.85643528  0.55789349  0.06317905    -0.28300
C685        C  0.88810945  0.54921361  0.02527257    -0.04400
C686        C  0.90933382  0.56915262  0.99767569     0.07800
C687        C  0.88869458  0.58949134  0.02090954     0.01600
H688        H  0.89810168  0.53008199  0.01940871     0.09200
H689        H  0.89976937  0.60841285  0.01175803     0.08300
N690        N  0.77487483  0.53082416  0.18803753    -0.35500
N691        N  0.75466081  0.54603012  0.22036212    -0.27700
C692        C  0.73622479  0.53298378  0.25815959    -0.02900
C693        C  0.74462424  0.50851824  0.24939019     0.05700
C694        C  0.76878687  0.50773816  0.20473302     0.03800
H695        H  0.71846433  0.54080101  0.28982606     0.08900
H696        H  0.78393128  0.49166273  0.18627166     0.07700
N697        N  0.68537409  0.87274445  0.26100568    -0.26700
N698        N  0.66512647  0.86193052  0.29985852    -0.34500
C699        C  0.66245521  0.83769679  0.29477402     0.01700
C700        C  0.68195301  0.83284799  0.25060384     0.07700
C701        C  0.69650010  0.85544560  0.23001456    -0.05400
H702        H  0.65208136  0.82440115  0.32189208     0.08400
H703        H  0.71784538  0.85884663  0.19596600     0.09600
Cu704      Cu  0.65106921  0.87924972  0.35965795     0.44200
Cu705      Cu  0.70196349  0.91021848  0.25400007     0.42000
Cu706      Cu  0.66600723  0.94372115  0.35782739     0.43900
N707        N  0.63609276  0.89931619  0.41635682    -0.34100
N708        N  0.64007963  0.92342289  0.41583798    -0.28300
C709        C  0.61622387  0.93152391  0.45613003    -0.04400
C710        C  0.59619697  0.91142760  0.48304777     0.07800
C711        C  0.61018483  0.89130928  0.45693060     0.01600
H712        H  0.60833419  0.95061184  0.46374036     0.09200
H713        H  0.59619842  0.87257116  0.46511014     0.08300
N714        N  0.68928674  0.96003236  0.29552315    -0.35500
N715        N  0.70391271  0.94817215  0.25799792    -0.27700
C716        C  0.71445736  0.96464948  0.22398578    -0.02900
C717        C  0.70506671  0.98780820  0.24099509     0.05700
C718        C  0.68951181  0.98420630  0.28638534     0.03800
H719        H  0.72626581  0.96010760  0.18937973     0.08900
H720        H  0.67769482  0.99806645  0.31099702     0.07700
N721        N  0.70367564  0.72216760  0.17969926    -0.36000
N722        N  0.78465253  0.72272820  0.24462300    -0.56600
N723        N  0.76197675  0.77424405  0.25550260    -0.36000
N724        N  0.68146475  0.77441329  0.18746657    -0.56600
C725        C  0.72762785  0.69953712  0.17413905     0.27600
C726        C  0.67017391  0.72616225  0.14725200     0.27600
C727        C  0.81119029  0.77207707  0.27551261     0.27600
C728        C  0.75220764  0.79838971  0.24954696     0.27600
C729        C  0.78640695  0.69849318  0.23709490     0.36200
C730        C  0.82072635  0.72662612  0.27495656     0.36200
C731        C  0.63357282  0.76758880  0.16886079     0.36200
C732        C  0.66607595  0.79573951  0.20805196     0.36200
C733        C  0.70919006  0.68921557  0.13736468    -0.21300
C734        C  0.67306008  0.70598707  0.12058476    -0.21300
C735        C  0.83237817  0.79518877  0.28282484    -0.21300
C736        C  0.79492692  0.81179217  0.26671031    -0.21300
C737        C  0.82380229  0.68687130  0.26289048    -0.22300
C738        C  0.84624914  0.70473712  0.28622143    -0.22300
C739        C  0.58862438  0.78491455  0.17705032    -0.22300
C740        C  0.60947401  0.80296740  0.20108653    -0.22300
C741        C  0.76114763  0.68715113  0.20341613    -0.17700
C742        C  0.62912128  0.74550402  0.14603132    -0.17700
C743        C  0.70174167  0.80855238  0.23390779    -0.17700
C744        C  0.83677095  0.74990672  0.28837320    -0.17700
H745        H  0.71779210  0.67102030  0.12482949     0.15200
H746        H  0.64901022  0.70301660  0.09338545     0.15200
H747        H  0.87037917  0.79967490  0.29867419     0.15200
H748        H  0.79829192  0.83151480  0.26801987     0.15200
H749        H  0.83672445  0.66778527  0.26289402     0.13500
H750        H  0.88034050  0.70203453  0.30688502     0.13500
H751        H  0.54414914  0.78393712  0.16906286     0.13500
H752        H  0.58457632  0.81891594  0.21394171     0.13500
H753        H  0.70220316  0.73255251  0.20772816     0.26800
H754        H  0.73232477  0.76044622  0.25087237     0.26800
O755        O  0.40512901  0.89117411  0.55102682    -0.72300
O756        O  0.52385111  0.89182793  0.63526536    -0.73300
O757        O  0.39583508  0.89207005  0.64430796    -0.61900
O758        O  0.53168676  0.89144068  0.54216785    -0.70300
O759        O  0.53247590  0.93213799  0.53942202    -0.69900
O760        O  0.39665861  0.93275566  0.64092916    -0.61200
O761        O  0.52469468  0.93250326  0.63240885    -0.73700
O762        O  0.40584944  0.93183246  0.54756614    -0.72400
Cu763      Cu  0.46414201  0.89022403  0.59373865     1.04600
Cu764      Cu  0.46492434  0.93373352  0.59043944     1.04300
C765        C  0.38745566  0.91133370  0.53543229     0.93900
C766        C  0.52710429  0.91666489  0.13991843     0.93000
C767        C  0.35154064  0.91812235  0.15529602     0.85100
C768        C  0.55238169  0.91168935  0.52402385     0.91400
N769        N  0.40560980  0.24354080  0.85760213    -0.02900
C770        C  0.46605800  0.24160940  0.85793570    -0.00300
C771        C  0.49633274  0.24754872  0.81531693    -0.23200
C772        C  0.45444867  0.25248259  0.78877012    -0.23400
C773        C  0.39947737  0.24979758  0.81519728    -0.00400
H774        H  0.54341216  0.24831508  0.80248802     0.13400
H775        H  0.46313766  0.25638281  0.75329700     0.13400
N776        N  0.55644960  0.23305753  0.89703996    -0.02900
C777        C  0.49588974  0.23400678  0.89699717    -0.00300
C778        C  0.46639700  0.22898220  0.93999138    -0.23200
C779        C  0.50966833  0.22616827  0.96680198    -0.23400
C780        C  0.56455536  0.22963906  0.93987241    -0.00400
H781        H  0.41885069  0.22861406  0.95221858     0.13400
H782        H  0.50164291  0.22396510  0.00267182     0.13400
N783        N  0.06055799  0.24442694  0.60041282    -0.02900
C784        C  0.00017546  0.23933606  0.60354801    -0.00300
C785        C  0.98385298  0.22336762  0.64003201    -0.23200
C786        C  0.03148677  0.22109742  0.66220853    -0.23400
C787        C  0.07701115  0.23472881  0.63816183    -0.00400
H788        H  0.93917331  0.21797872  0.65498610     0.13400
H789        H  0.03141402  0.21213312  0.69430140     0.13400
N790        N  0.89391560  0.25318499  0.60490531    -0.02900
C791        C  0.95422962  0.25884607  0.59856432    -0.00300
C792        C  0.96094582  0.27858371  0.62511323    -0.23200
C793        C  0.90934587  0.28080885  0.65501274    -0.23400
C794        C  0.86832208  0.26493661  0.64244208    -0.00400
H795        H  0.00206151  0.28690503  0.63001081     0.13400
H796        H  0.90380834  0.29204968  0.68409220     0.13400
N797        N  0.18393317  0.11946625  0.94241146    -0.26700
N798        N  0.20252561  0.12723009  0.90097888    -0.34500
C799        C  0.20257686  0.15179556  0.89941275     0.01700
C800        C  0.18623594  0.16035821  0.94216183     0.07700
C801        C  0.17401205  0.13918284  0.96858577    -0.05400
H802        H  0.22110187  0.16265226  0.87016696     0.08400
H803        H  0.16371743  0.13813043  0.00451853     0.09600
Cu804      Cu  0.25033430  0.10572903  0.85200331     0.44200
Cu805      Cu  0.17915568  0.08195217  0.96019530     0.42000
Cu806      Cu  0.24781353  0.04250568  0.87065071     0.43900
N807        N  0.32114777  0.08353808  0.82445082    -0.34100
N808        N  0.31983042  0.05961876  0.83157507    -0.28300
C809        C  0.37634136  0.05105310  0.82685623    -0.04400
C810        C  0.41578199  0.07063711  0.81824685     0.07800
C811        C  0.37885766  0.09082601  0.81513564     0.01600
H812        H  0.38730908  0.03313216  0.83919827     0.09200
H813        H  0.39240895  0.10976407  0.81637878     0.08300
N814        N  0.19554613  0.02961721  0.92851119    -0.35500
N815        N  0.17383080  0.04344835  0.96242991    -0.27700
C816        C  0.15046732  0.02862873  0.99703610    -0.02900
C817        C  0.15770585  0.00448403  0.98399988     0.05700
C818        C  0.18624544  0.00588571  0.94037004     0.03800
H819        H  0.13114006  0.03492757  0.02962090     0.08900
H820        H  0.20255771  0.99075220  0.91958270     0.07700
N821        N  0.26784894  0.22060633  0.93159075    -0.36000
N822        N  0.16467398  0.21848980  0.50416205    -0.56600
N823        N  0.19416027  0.26895581  0.52198139    -0.36000
N824        N  0.30014771  0.26999309  0.95178245    -0.56600
C825        C  0.25481959  0.19638102  0.93695067     0.27600
C826        C  0.32428987  0.22243291  0.90796913     0.27600
C827        C  0.14089850  0.26651336  0.55012715     0.27600
C828        C  0.21278698  0.29254914  0.52362182     0.27600
C829        C  0.15885607  0.19543237  0.48983882     0.36200
C830        C  0.11551909  0.22310398  0.53488606     0.36200
C831        C  0.34521725  0.26630968  0.91746867     0.36200
C832        C  0.30995244  0.29218170  0.96798684     0.36200
C833        C  0.30450672  0.18299198  0.91778013    -0.21300
C834        C  0.34763159  0.19942016  0.89884443    -0.21300
C835        C  0.12612317  0.28868919  0.56963857    -0.21300
C836        C  0.17013556  0.30510330  0.55251416    -0.21300
C837        C  0.10509300  0.18541852  0.51106507    -0.22300
C838        C  0.07817060  0.20268969  0.53981888    -0.22300
C839        C  0.38349434  0.28630154  0.91139228    -0.22300
C840        C  0.36199577  0.30245465  0.94397958    -0.22300
C841        C  0.19846888  0.18580623  0.95607693    -0.17700
C842        C  0.35653050  0.24419245  0.89465799    -0.17700
C843        C  0.26736618  0.30330870  0.50071953    -0.17700
C844        C  0.10474393  0.24506213  0.55961386    -0.17700
H845        H  0.30968049  0.16329960  0.91766244     0.15200
H846        H  0.39214925  0.19492482  0.88191454     0.15200
H847        H  0.08749681  0.29303283  0.59340772     0.15200
H848        H  0.16977055  0.32429712  0.56036603     0.15200
H849        H  0.08711270  0.16744854  0.50691263     0.13500
H850        H  0.03581879  0.20010304  0.56163886     0.13500
H851        H  0.42429232  0.28854492  0.88740092     0.13500
H852        H  0.38279078  0.31972198  0.94904197     0.13500
H853        H  0.23791656  0.23499171  0.93919677     0.26800
H854        H  0.21889830  0.25493615  0.50574681     0.26800
N855        N  0.30307454  0.36743752  0.52246078    -0.26700
N856        N  0.29260358  0.35759065  0.56308413    -0.34500
C857        C  0.28370645  0.33342052  0.56083106     0.01700
C858        C  0.28622398  0.32742621  0.51673444     0.07700
C859        C  0.29912380  0.34955403  0.49319786    -0.05400
H860        H  0.26971271  0.32149577  0.58957515     0.08400
H861        H  0.30135962  0.35270271  0.45778036     0.09600
Cu862      Cu  0.26494911  0.37741035  0.61935113     0.44200
Cu863      Cu  0.31590328  0.40550308  0.51125426     0.38400
Cu864      Cu  0.27058524  0.44096599  0.61131040     0.43900
N865        N  0.19719402  0.39869393  0.65239197    -0.34100
N866        N  0.19960953  0.42277631  0.64928715    -0.28300
C867        C  0.14351762  0.43174193  0.65561079    -0.04400
C868        C  0.10344000  0.41235296  0.66100412     0.07800
C869        C  0.13925791  0.39167909  0.66041865     0.01600
H870        H  0.13322371  0.45035890  0.64641400     0.09200
H871        H  0.12490744  0.37318302  0.65560345     0.08300
N872        N  0.31407960  0.45592715  0.55206522    -0.35500
N873        N  0.32784877  0.44368716  0.51485316    -0.27700
C874        C  0.34644136  0.45992051  0.48130486    -0.02900
C875        C  0.34398930  0.48330496  0.49841596     0.05700
C876        C  0.32341982  0.47997774  0.54333293     0.03800
H877        H  0.35841269  0.45516998  0.44675641     0.08900
H878        H  0.31207782  0.49411017  0.56748687     0.07700
N879        N  0.67529079  0.26716524  0.99103889    -0.36000
N880        N  0.71768685  0.21745836  0.97115854    -0.56600
N881        N  0.81814318  0.22362736  0.51818749    -0.36000
N882        N  0.77475466  0.27230922  0.54298148    -0.56600
C883        C  0.62511230  0.25735978  0.97938442     0.27600
C884        C  0.65932557  0.28861655  0.01102913     0.27600
C885        C  0.82612882  0.19999584  0.50671824     0.27600
C886        C  0.85486591  0.22845390  0.54797906     0.27600
C887        C  0.66746178  0.21705149  0.95208523     0.36200
C888        C  0.74781808  0.19642289  0.96024788     0.36200
C889        C  0.75734867  0.29594820  0.54095849     0.36200
C890        C  0.82918465  0.27241883  0.55612619     0.36200
C891        C  0.57727395  0.27328891  0.99118254    -0.21300
C892        C  0.59886221  0.29290860  0.01100743    -0.21300
C893        C  0.87061130  0.18988130  0.52804097    -0.21300
C894        C  0.88836226  0.20777035  0.55419773    -0.21300
C895        C  0.66479267  0.19538686  0.93002669    -0.22300
C896        C  0.71543383  0.18242067  0.93493717    -0.22300
C897        C  0.80114640  0.31115415  0.55239970    -0.22300
C898        C  0.84662887  0.29625126  0.56186862    -0.22300
C899        C  0.62149472  0.23495688  0.95706082    -0.17700
C900        C  0.69982339  0.30375273  0.53384784    -0.17700
C901        C  0.86004212  0.25127514  0.56828658    -0.17700
C902        C  0.80187419  0.18868029  0.97501369    -0.17700
H903        H  0.53129188  0.27134891  0.98597941     0.15200
H904        H  0.57270189  0.30846013  0.02428449     0.15200
H905        H  0.88847178  0.17149819  0.52537693     0.15200
H906        H  0.92273508  0.20572058  0.57477390     0.15200
H907        H  0.62905960  0.18909555  0.91345929     0.13500
H908        H  0.72535746  0.16419079  0.92284678     0.13500
H909        H  0.79998254  0.33090573  0.55447800     0.13500
H910        H  0.88759673  0.30234230  0.57224266     0.13500
H911        H  0.71898356  0.26080591  0.98241117     0.26800
H912        H  0.79189364  0.23610557  0.50390242     0.26800
N913        N  0.84806550  0.12581286  0.94767533    -0.26700
N914        N  0.85410688  0.13651360  0.90774020    -0.34500
C915        C  0.84435854  0.16063418  0.91199331     0.01700
C916        C  0.83002432  0.16559071  0.95669780     0.07700
C917        C  0.83302180  0.14305136  0.97848195    -0.05400
H918        H  0.84055799  0.17317611  0.88452274     0.08400
H919        H  0.82042972  0.13919497  0.01377474     0.09600
Cu920      Cu  0.85062191  0.11799038  0.85008099     0.44200
Cu921      Cu  0.85250477  0.08763777  0.95696877     0.42000
Cu922      Cu  0.86009236  0.05435937  0.85436445     0.43900
N923        N  0.79991123  0.09636540  0.81580592    -0.34100
N924        N  0.80441863  0.07230031  0.81684537    -0.28300
C925        C  0.75131480  0.06256442  0.81214990    -0.04400
C926        C  0.71018583  0.08127039  0.80964668     0.07800
C927        C  0.74364468  0.10247935  0.81061183     0.01600
H928        H  0.73971217  0.04370589  0.82148427     0.09200
H929        H  0.72495603  0.12036380  0.81866548     0.08300
N930        N  0.86773169  0.03773662  0.91482454    -0.35500
N931        N  0.86078744  0.04939082  0.95285107    -0.27700
C932        C  0.85459912  0.03260157  0.98652985    -0.02900
C933        C  0.85769478  0.00938737  0.96872808     0.05700
C934        C  0.86636779  0.01343239  0.92322592     0.03800
H935        H  0.84492930  0.03696693  0.02138573     0.08900
H936        H  0.86614067  0.99978383  0.89817221     0.07700
N937        N  0.66064410  0.36774078  0.55823717    -0.26700
N938        N  0.66310898  0.35847715  0.59844036    -0.34500
C939        C  0.67392878  0.33434201  0.59582463     0.01700
C940        C  0.67821006  0.32780993  0.55195630     0.07700
C941        C  0.66948058  0.34943560  0.52888700    -0.05400
H942        H  0.68280209  0.32272635  0.62331333     0.08400
H943        H  0.67338760  0.35193666  0.49320430     0.09600
Cu944      Cu  0.66877379  0.37925552  0.65322219     0.44200
Cu945      Cu  0.65374715  0.40558983  0.54588434     0.42000
Cu946      Cu  0.66446432  0.44372487  0.64045210     0.43900
N947        N  0.72065256  0.40202675  0.68428901    -0.34100
N948        N  0.71970273  0.42604913  0.67884005    -0.28300
C949        C  0.77455503  0.43496105  0.68095944    -0.04400
C950        C  0.81301900  0.41568738  0.68544259     0.07800
C951        C  0.77619311  0.39520829  0.68989886     0.01600
H952        H  0.78899985  0.45290777  0.66780763     0.09200
H953        H  0.79222946  0.37672351  0.68446468     0.08300
N954        N  0.64817941  0.45766150  0.57977854    -0.35500
N955        N  0.64814721  0.44401082  0.54452960    -0.27700
C956        C  0.64895599  0.45893058  0.50854582    -0.02900
C957        C  0.64917946  0.48302974  0.52181365     0.05700
C958        C  0.64841156  0.48150063  0.56723412     0.03800
H959        H  0.65214594  0.45269181  0.47485088     0.08900
H960        H  0.65303003  0.49651756  0.58889526     0.07700
O961        O  0.61663568  0.09835419  0.84255897    -0.72300
O962        O  0.47637144  0.09027966  0.43376832    -0.73300
O963        O  0.60051519  0.09745046  0.43028490    -0.61900
O964        O  0.48892473  0.09288931  0.84779371    -0.70300
O965        O  0.49623286  0.05235359  0.84978399    -0.69900
O966        O  0.61363155  0.05718469  0.43395486    -0.61200
O967        O  0.48804530  0.04995958  0.43864907    -0.73700
O968        O  0.62574055  0.05787030  0.84383257    -0.72400
Cu969      Cu  0.54646804  0.09487329  0.38496664     1.04600
Cu970      Cu  0.55855941  0.05174017  0.38917499     1.04300
C971        C  0.64669408  0.07905587  0.83096887     0.93900
C972        C  0.46049795  0.06946863  0.45205400     0.93000
C973        C  0.62345185  0.07869164  0.44678850     0.85100
C974        C  0.47138333  0.07194154  0.83759517     0.91400
N975        N  0.30386771  0.11829076  0.69853972    -0.26700
N976        N  0.32158646  0.12637675  0.65738536    -0.34500
C977        C  0.31811384  0.15078018  0.65558217     0.01700
C978        C  0.29487675  0.15848761  0.69754544     0.07700
C979        C  0.28684577  0.13748637  0.72435001    -0.05400
H980        H  0.32664496  0.16186587  0.62525069     0.08400
H981        H  0.26658011  0.13614519  0.75905624     0.09600
Cu982      Cu  0.33623064  0.10407189  0.60446934     0.44200
Cu983      Cu  0.29605634  0.08128553  0.71273788     0.42000
Cu984      Cu  0.32085207  0.03962303  0.61480509     0.43900
N985        N  0.35928028  0.08168064  0.55237102    -0.34100
N986        N  0.35849126  0.05754198  0.55549359    -0.28300
C987        C  0.39092051  0.04881498  0.51799122    -0.04400
C988        C  0.41232533  0.06868695  0.49055736     0.07800
C989        C  0.39064359  0.08907191  0.51328512     0.01600
H990        H  0.40225503  0.02974083  0.51278292     0.09200
H991        H  0.40267450  0.10794924  0.50446571     0.08300
N992        N  0.28483045  0.02948798  0.68034153    -0.35500
N993        N  0.27886243  0.04419535  0.71467720    -0.27700
C994        C  0.25808440  0.03127319  0.75202211    -0.02900
C995        C  0.25026757  0.00739177  0.74105823     0.05700
C996        C  0.26707140  0.00683610  0.69534658     0.03800
H997        H  0.24920687  0.03874659  0.78485619     0.08900
H998        H  0.26879185  0.99102621  0.67469489     0.07700
N999        N  0.19422505  0.37000407  0.75973645    -0.26700
N1000       N  0.17040488  0.35956507  0.79825739    -0.34500
C1001       C  0.16843461  0.33524853  0.79391399     0.01700
C1002       C  0.19201212  0.32984654  0.75067836     0.07700
C1003       C  0.20854300  0.35224934  0.72985098    -0.05400
H1004       H  0.15505819  0.32226889  0.82115510     0.08400
H1005       H  0.23265893  0.35521536  0.69644971     0.09600
Cu1006     Cu  0.14771396  0.37715721  0.85762058     0.44200
Cu1007     Cu  0.20908751  0.40783468  0.75157405     0.42000
Cu1008     Cu  0.16213184  0.44066244  0.85533000     0.43900
N1009       N  0.12265991  0.39743563  0.91365493    -0.34100
N1010       N  0.12817830  0.42147541  0.91274028    -0.28300
C1011       C  0.10027430  0.43026056  0.95145090    -0.04400
C1012       C  0.07587042  0.41068173  0.97794760     0.07800
C1013       C  0.09121656  0.39011240  0.95308051     0.01600
H1014       H  0.09375586  0.44951546  0.95818023     0.09200
H1015       H  0.07616963  0.37151411  0.96141094     0.08300
N1016       N  0.18638941  0.45731263  0.79382995    -0.35500
N1017       N  0.20584631  0.44603888  0.75630710    -0.27700
C1018       C  0.21534385  0.46305725  0.72305105    -0.02900
C1019       C  0.19907029  0.48567026  0.74039952     0.05700
C1020       C  0.18160102  0.48138772  0.78536198     0.03800
H1021       H  0.23143195  0.45937105  0.68860195     0.08900
H1022       H  0.16466871  0.49462752  0.81009465     0.07700
N1023       N  0.28978916  0.21893755  0.75442237    -0.36000
N1024       N  0.21324121  0.21749065  0.68530400    -0.56600
N1025       N  0.18916527  0.26954921  0.69326300    -0.36000
N1026       N  0.27275079  0.27147958  0.75836643    -0.56600
C1027       C  0.30026181  0.19563455  0.74120310     0.27600
C1028       C  0.33081160  0.22431210  0.78065697     0.27600
C1029       C  0.13944307  0.26152107  0.67811838     0.27600
C1030       C  0.17422800  0.29088231  0.71407374     0.27600
C1031       C  0.23238299  0.19405852  0.68346230     0.36200
C1032       C  0.17336382  0.21966544  0.65681374     0.36200
C1033       C  0.31771474  0.26981603  0.78265211     0.36200
C1034       C  0.26241710  0.29558965  0.75253196     0.36200
C1035       C  0.34598823  0.18569271  0.76135334    -0.21300
C1036       C  0.36513424  0.20366656  0.78607019    -0.21300
C1037       C  0.09294815  0.27792420  0.68965059    -0.21300
C1038       C  0.11507955  0.29665860  0.71149534    -0.21300
C1039       C  0.20458586  0.18146368  0.65335112    -0.22300
C1040       C  0.16785120  0.19771051  0.63624600    -0.22300
C1041       C  0.33634253  0.29300096  0.79197546    -0.22300
C1042       C  0.30141802  0.30931983  0.77284701    -0.22300
C1043       C  0.27375837  0.18349398  0.70877614    -0.17700
C1044       C  0.34394257  0.24781156  0.79542048    -0.17700
C1045       C  0.21218357  0.30518435  0.73586869    -0.17700
C1046       C  0.13418886  0.23958578  0.65504766    -0.17700
H1047       H  0.36628045  0.16778719  0.75681419     0.15200
H1048       H  0.40314823  0.20205948  0.80341882     0.15200
H1049       H  0.04683161  0.27587776  0.68530317     0.15200
H1050       H  0.08962156  0.31216638  0.72574286     0.15200
H1051       H  0.20805065  0.16226272  0.64560715     0.13500
H1052       H  0.13774259  0.19337032  0.61337507     0.13500
H1053       H  0.37123401  0.29768977  0.81082055     0.13500
H1054       H  0.30323919  0.32904625  0.77491535     0.13500
H1055       H  0.25693545  0.23044649  0.74563326     0.26800
H1056       H  0.23188114  0.26175540  0.68767933     0.26800
N1057       N  0.72952421  0.23041882  0.70384153    -0.36000
N1058       N  0.65466600  0.21832002  0.79001287    -0.56600
N1059       N  0.66824593  0.26882223  0.81681869    -0.36000
N1060       N  0.74118509  0.28038033  0.73087139    -0.56600
C1061       C  0.72511109  0.20567296  0.70303923     0.27600
C1062       C  0.78200914  0.23693254  0.67720981     0.27600
C1063       C  0.62624370  0.26081683  0.85111899     0.27600
C1064       C  0.66979529  0.29357956  0.81879788     0.27600
C1065       C  0.64629375  0.19740412  0.76882521     0.36200
C1066       C  0.61698871  0.21719253  0.82949477     0.36200
C1067       C  0.77717353  0.28164035  0.69077152     0.36200
C1068       C  0.73499601  0.30346567  0.74582537     0.36200
C1069       C  0.77395696  0.19644327  0.67513182    -0.21300
C1070       C  0.80974284  0.21594836  0.65959743    -0.21300
C1071       C  0.60180572  0.28053646  0.87532987    -0.21300
C1072       C  0.62922079  0.30111852  0.85517848    -0.21300
C1073       C  0.60329266  0.18292713  0.79501848    -0.22300
C1074       C  0.58524973  0.19532328  0.83352564    -0.22300
C1075       C  0.79122922  0.30591420  0.67923346    -0.22300
C1076       C  0.76566933  0.31959013  0.71436891    -0.22300
C1077       C  0.67903247  0.19076832  0.72713342    -0.17700
C1078       C  0.80567266  0.26112670  0.66866149    -0.17700
C1079       C  0.70476952  0.31002430  0.78830525    -0.17700
C1080       C  0.60404843  0.23668750  0.85955173    -0.17700
H1081       H  0.78425851  0.17745022  0.66804515     0.15200
H1082       H  0.85157620  0.21426595  0.63802260     0.15200
H1083       H  0.56518756  0.28035104  0.90306313     0.15200
H1084       H  0.61803868  0.31966851  0.86503694     0.15200
H1085       H  0.58615834  0.16535773  0.78726006     0.13500
H1086       H  0.55060752  0.18936903  0.86057284     0.13500
H1087       H  0.81972504  0.31303327  0.64968816     0.13500
H1088       H  0.77100705  0.33905838  0.71680240     0.13500
H1089       H  0.69642177  0.24196139  0.71962912     0.26800
H1090       H  0.69586202  0.25795496  0.79475175     0.26800
N1091       N  0.67483677  0.12619186  0.69697530    -0.26700
N1092       N  0.67080251  0.13734032  0.65859622    -0.34500
C1093       C  0.66720280  0.16163660  0.66439148     0.01700
C1094       C  0.66950502  0.16626342  0.70859127     0.07700
C1095       C  0.67439208  0.14327544  0.72823497    -0.05400
H1096       H  0.66683825  0.17511508  0.63777683     0.08400
H1097       H  0.68059474  0.13942510  0.76208269     0.09600
Cu1098     Cu  0.67785524  0.11921727  0.59903097     0.44200
Cu1099     Cu  0.68659827  0.08828891  0.70218021     0.42000
Cu1100     Cu  0.72271213  0.05552955  0.59732317     0.43900
N1101       N  0.68222266  0.09745589  0.54389517    -0.34100
N1102       N  0.69818419  0.07414598  0.54313795    -0.28300
C1103       C  0.68438795  0.06417191  0.50616047    -0.04400
C1104       C  0.65851692  0.08211147  0.48265954     0.07800
C1105       C  0.65864357  0.10301506  0.50722410     0.01600
H1106       H  0.68752257  0.04484177  0.49923178     0.09200
H1107       H  0.63722063  0.12026739  0.50137376     0.08300
N1108       N  0.71955977  0.03914125  0.65961489    -0.35500
N1109       N  0.70241479  0.05061019  0.69728858    -0.27700
C1110       C  0.69632124  0.03399138  0.73104355    -0.02900
C1111       C  0.71183798  0.01121005  0.71414933     0.05700
C1112       C  0.72602451  0.01510131  0.66865009     0.03800
H1113       H  0.67931278  0.03798571  0.76520703     0.08900
H1114       H  0.73755500  0.00136380  0.64376699     0.07700
N1115       N  0.70767649  0.37557958  0.81174152    -0.26700
N1116       N  0.72681908  0.36569297  0.84681083    -0.34500
C1117       C  0.72987095  0.34134060  0.84293671     0.01700
C1118       C  0.71131537  0.33537116  0.80356710     0.07700
C1119       C  0.69714253  0.35755810  0.78458891    -0.05400
H1120       H  0.74373611  0.32880366  0.86738616     0.08400
H1121       H  0.68006788  0.36036868  0.75369274     0.09600
Cu1122     Cu  0.74754829  0.38544998  0.89862087     0.44200
Cu1123     Cu  0.70050306  0.41329650  0.80395025     0.42000
Cu1124     Cu  0.75657307  0.45079656  0.88876270     0.43900
N1125       N  0.77665493  0.40672048  0.94533547    -0.34100
N1126       N  0.78183882  0.43080857  0.94180507    -0.28300
C1127       C  0.81123394  0.43851579  0.97397993    -0.04400
C1128       C  0.82525280  0.41816125  0.99842825     0.07800
C1129       C  0.80213269  0.39840998  0.97958764     0.01600
H1130       H  0.82514302  0.45723624  0.97726510     0.09200
H1131       H  0.80761310  0.37923385  0.98782374     0.08300
N1132       N  0.73078619  0.46461001  0.83034946    -0.35500
N1133       N  0.70967301  0.45117324  0.80076536    -0.27700
C1134       C  0.70203745  0.46557913  0.76572985    -0.02900
C1135       C  0.71997644  0.48897959  0.77302039     0.05700
C1136       C  0.73726915  0.48787272  0.81452130     0.03800
H1137       H  0.68623176  0.45937019  0.73640201     0.08900
H1138       H  0.75704528  0.50246126  0.83064373     0.07700
O1139       O  0.88048526  0.39600272  0.04615040    -0.72300
O1140       O  0.00158749  0.39159609  0.12904942    -0.73300
O1141       O  0.87306303  0.39502106  0.13911839    -0.61900
O1142       O  0.00688401  0.39209653  0.03602690    -0.70300
O1143       O  0.01479958  0.43265597  0.03455873    -0.69900
O1144       O  0.87774930  0.43566500  0.13633982    -0.61200
O1145       O  0.00613875  0.43222175  0.12802613    -0.73700
O1146       O  0.88847093  0.43656282  0.04327809    -0.72400
Cu1147     Cu  0.94029569  0.39226328  0.08806881     1.04600
Cu1148     Cu  0.94714048  0.43568167  0.08596611     1.04300
C1149       C  0.86615428  0.41690090  0.03116082     0.93900
C1150       C  0.02533346  0.41139151  0.13948489     0.93000
C1151       C  0.85112946  0.41578942  0.15130922     0.85100
C1152       C  0.03111717  0.41187322  0.01846849     0.91400
N1153       N  0.38332970  0.75142639  0.60349236    -0.02900
C1154       C  0.44271369  0.75853519  0.59408311    -0.00300
C1155       C  0.44834722  0.77931868  0.61831280    -0.23200
C1156       C  0.39891096  0.78063070  0.65060702    -0.23400
C1157       C  0.35922324  0.76314690  0.64129052    -0.00400
H1158       H  0.48860604  0.78929874  0.61976680     0.13400
H1159       H  0.39378750  0.79263619  0.67863725     0.13400
N1160       N  0.55159453  0.74696932  0.59436767    -0.02900
C1161       C  0.49168517  0.74055041  0.60011092    -0.00300
C1162       C  0.47910587  0.72573816  0.63851506    -0.23200
C1163       C  0.52845362  0.72556728  0.65908863    -0.23400
C1164       C  0.57142157  0.73919606  0.63222183    -0.00400
H1165       H  0.43555484  0.71985518  0.65526114     0.13400
H1166       H  0.53129738  0.71783350  0.69173214     0.13400
N1167       N  0.04433911  0.73344592  0.89643710    -0.02900
C1168       C  0.98421529  0.73533994  0.89485487    -0.00300
C1169       C  0.95258525  0.73182147  0.93767254    -0.23200
C1170       C  0.99407312  0.72860151  0.96579121    -0.23400
C1171       C  0.05010145  0.73038286  0.93984003    -0.00400
H1172       H  0.90484906  0.73264365  0.94885390     0.13400
H1173       H  0.98439138  0.72720352  0.00173153     0.13400
N1174       N  0.89665649  0.74407074  0.85218244    -0.02900
C1175       C  0.95664780  0.74183957  0.85420126    -0.00300
C1176       C  0.98884237  0.74570657  0.81143782    -0.23200
C1177       C  0.94849250  0.74953859  0.78314422    -0.23400
C1178       C  0.89266201  0.74840411  0.80876600    -0.00400
H1179       H  0.03629082  0.74576783  0.79978867     0.13400
H1180       H  0.95873557  0.75210216  0.74737093     0.13400
N1181       N  0.20978774  0.87360089  0.81204266    -0.26700
N1182       N  0.22856234  0.86333470  0.84703520    -0.34500
C1183       C  0.22983238  0.83896584  0.84282931     0.01700
C1184       C  0.21059589  0.83342380  0.80346542     0.07700
C1185       C  0.19768495  0.85585735  0.78488072    -0.05400
H1186       H  0.24256470  0.82610194  0.86722294     0.08400
H1187       H  0.17966479  0.85907093  0.75447795     0.09600
Cu1188     Cu  0.25007419  0.88206110  0.90034636     0.44200
Cu1189     Cu  0.20400424  0.91128523  0.80280490     0.42000
Cu1190     Cu  0.25823340  0.94672275  0.88902670     0.43900
N1191       N  0.27804304  0.90372368  0.94762122    -0.34100
N1192       N  0.28185072  0.92780748  0.94323962    -0.28300
C1193       C  0.30915060  0.93649831  0.97569889    -0.04400
C1194       C  0.32333228  0.91683994  0.00160587     0.07800
C1195       C  0.30263007  0.89636421  0.98300725     0.01600
H1196       H  0.32164271  0.95546470  0.97822908     0.09200
H1197       H  0.30904518  0.87741836  0.99239077     0.08300
N1198       N  0.23855232  0.96147559  0.82989215    -0.35500
N1199       N  0.21762208  0.94893266  0.79913605    -0.27700
C1200       C  0.21461894  0.96391735  0.76384484    -0.02900
C1201       C  0.23581095  0.98664433  0.77242352     0.05700
C1202       C  0.24983922  0.98459538  0.81476783     0.03800
H1203       H  0.19951080  0.95860557  0.73372942     0.08900
H1204       H  0.27051765  0.99839707  0.83217223     0.07700
N1205       N  0.22507002  0.72764443  0.70716406    -0.36000
N1206       N  0.14834645  0.71663099  0.79321091    -0.56600
N1207       N  0.16161954  0.76759473  0.81767359    -0.36000
N1208       N  0.23597425  0.77799149  0.73207103    -0.56600
C1209       C  0.22162220  0.70286667  0.70777991     0.27600
C1210       C  0.27690840  0.73420579  0.67979083     0.27600
C1211       C  0.11722100  0.76031566  0.85091858     0.27600
C1212       C  0.16499174  0.79234026  0.81913518     0.27600
C1213       C  0.14120731  0.69526027  0.77303673     0.36200
C1214       C  0.10892065  0.71620447  0.83189835     0.36200
C1215       C  0.26839275  0.77897839  0.69066853     0.36200
C1216       C  0.22855711  0.80131289  0.74551850     0.36200
C1217       C  0.27081564  0.69357838  0.68016471    -0.21300
C1218       C  0.30569421  0.71318335  0.66308595    -0.21300
C1219       C  0.09284294  0.78052201  0.87364555    -0.21300
C1220       C  0.12335998  0.80062045  0.85416918    -0.21300
C1221       C  0.09733406  0.68116182  0.79927700    -0.22300
C1222       C  0.07753087  0.69427496  0.83668293    -0.22300
C1223       C  0.27857227  0.80319279  0.67684969    -0.22300
C1224       C  0.25461634  0.81723769  0.71184682    -0.22300
C1225       C  0.17505207  0.68815055  0.73192158    -0.17700
C1226       C  0.29818650  0.75859529  0.66932167    -0.17700
C1227       C  0.20116474  0.80824571  0.78843644    -0.17700
C1228       C  0.09385269  0.73638021  0.86003317    -0.17700
H1229       H  0.28137931  0.67453238  0.67376692     0.15200
H1230       H  0.34713228  0.71162609  0.64059927     0.15200
H1231       H  0.05425742  0.78100837  0.89971598     0.15200
H1232       H  0.11305159  0.81939336  0.86300577     0.15200
H1233       H  0.08025776  0.66347636  0.79218935     0.13500
H1234       H  0.04163598  0.68882788  0.86321915     0.13500
H1235       H  0.30377904  0.81012390  0.64582638     0.13500
H1236       H  0.25749298  0.83686112  0.71232775     0.13500
H1237       H  0.19132116  0.73919479  0.72205156     0.26800
H1238       H  0.18955890  0.75630903  0.79665706     0.26800
N1239       N  0.15999755  0.62385663  0.70183126    -0.26700
N1240       N  0.15990364  0.63530077  0.66309940    -0.34500
C1241       C  0.16222981  0.65958146  0.66861978     0.01700
C1242       C  0.16415353  0.66388665  0.71297314     0.07700
C1243       C  0.16260611  0.64072690  0.73304699    -0.05400
H1244       H  0.16488490  0.67316564  0.64187986     0.08400
H1245       H  0.16572072  0.63647990  0.76734333     0.09600
Cu1246     Cu  0.16161177  0.61758367  0.60346144     0.44200
Cu1247     Cu  0.16324065  0.58569495  0.70786135     0.42000
Cu1248     Cu  0.19832146  0.55398752  0.60164630     0.43900
N1249       N  0.15928433  0.59598732  0.54875602    -0.34100
N1250       N  0.17245531  0.57241248  0.54820159    -0.28300
C1251       C  0.15650654  0.56259990  0.51181455    -0.04400
C1252       C  0.13231246  0.58097950  0.48829391     0.07800
C1253       C  0.13534106  0.60193038  0.51238690     0.01600
H1254       H  0.15800376  0.54324982  0.50496753     0.09200
H1255       H  0.11663234  0.61967937  0.50603949     0.08300
N1256       N  0.19770013  0.53737737  0.66303791    -0.35500
N1257       N  0.18008721  0.54821076  0.70128653    -0.27700
C1258       C  0.17740591  0.53125543  0.73426849    -0.02900
C1259       C  0.19596254  0.50908684  0.71618348     0.05700
C1260       C  0.20797446  0.51352439  0.67085143     0.03800
H1261       H  0.16162453  0.53457455  0.76879932     0.08900
H1262       H  0.22133095  0.50031177  0.64528508     0.07700
N1263       N  0.33000465  0.62208108  0.95207104    -0.26700
N1264       N  0.33325186  0.63216744  0.91179528    -0.34500
C1265       C  0.32052544  0.65611298  0.91523891     0.01700
C1266       C  0.30843760  0.66161539  0.95974640     0.07700
C1267       C  0.31486841  0.63959447  0.98230084    -0.05400
H1268       H  0.31554902  0.66824569  0.88744658     0.08400
H1269       H  0.30555424  0.63626733  0.01790894     0.09600
Cu1270     Cu  0.33638005  0.61281866  0.85429561     0.44200
Cu1271     Cu  0.33857713  0.58428413  0.96330058     0.42000
Cu1272     Cu  0.34153398  0.54901448  0.86363282     0.43900
N1273       N  0.29133851  0.59087004  0.81679939    -0.34100
N1274       N  0.29379789  0.56678362  0.81994103    -0.28300
C1275       C  0.24155780  0.55751544  0.81228684    -0.04400
C1276       C  0.20256827  0.57661240  0.80654360     0.07800
C1277       C  0.23720191  0.59745842  0.80758819     0.01600
H1278       H  0.22769604  0.53897579  0.82243604     0.09200
H1279       H  0.21938514  0.61562922  0.81393885     0.08300
N1280       N  0.35125148  0.53358939  0.92481595    -0.35500
N1281       N  0.34660755  0.54602684  0.96190095    -0.27700
C1282       C  0.34334274  0.52995476  0.99658721    -0.02900
C1283       C  0.34634423  0.50638265  0.98037857     0.05700
C1284       C  0.35158778  0.50947014  0.93479757     0.03800
H1285       H  0.33642285  0.53501534  0.03112846     0.08900
H1286       H  0.35078105  0.49522632  0.91090399     0.07700
N1287       N  0.14273040  0.86395271  0.56451460    -0.26700
N1288       N  0.14932940  0.85495275  0.60415792    -0.34500
C1289       C  0.15888840  0.83072293  0.60163855     0.01700
C1290       C  0.15811171  0.82382731  0.55844109     0.07700
C1291       C  0.14759519  0.84537323  0.53572307    -0.05400
H1292       H  0.17098094  0.81930570  0.62833914     0.08400
H1293       H  0.14831823  0.84765221  0.50028305     0.09600
Cu1294     Cu  0.16334098  0.87601682  0.65679313     0.44200
Cu1295     Cu  0.13732589  0.90179976  0.55072407     0.42000
Cu1296     Cu  0.15889085  0.94058560  0.64096010     0.43900
N1297       N  0.21874886  0.89928399  0.68359612    -0.34100
N1298       N  0.21768610  0.92322496  0.67685856    -0.28300
C1299       C  0.27299032  0.93219623  0.67697212    -0.04400
C1300       C  0.31150080  0.91305351  0.68222947     0.07800
C1301       C  0.27476939  0.89259039  0.68825620     0.01600
H1302       H  0.28697169  0.95001951  0.66287165     0.09200
H1303       H  0.29068576  0.87402083  0.68399469     0.08300
N1304       N  0.13740816  0.95420696  0.58159248    -0.35500
N1305       N  0.13426378  0.94032557  0.54711339    -0.27700
C1306       C  0.13449386  0.95503548  0.51081837    -0.02900
C1307       C  0.13735225  0.97924088  0.52326659     0.05700
C1308       C  0.13876210  0.97793666  0.56841376     0.03800
H1309       H  0.13598049  0.94856800  0.47741426     0.08900
H1310       H  0.14650014  0.99297629  0.58919789     0.07700
N1311       N  0.20307598  0.71585168  0.97126104    -0.36000
N1312       N  0.30337902  0.72105177  0.52073906    -0.56600
N1313       N  0.25612185  0.76852721  0.54770879    -0.36000
N1314       N  0.16166907  0.76544571  0.99360321    -0.56600
C1315       C  0.22824620  0.69334673  0.96529068     0.27600
C1316       C  0.14947629  0.71542494  0.95636017     0.27600
C1317       C  0.31250087  0.76920623  0.55764680     0.27600
C1318       C  0.23757375  0.79206729  0.54511890     0.27600
C1319       C  0.31545158  0.69813425  0.50637355     0.36200
C1320       C  0.34176614  0.72591750  0.54917931     0.36200
C1321       C  0.11224919  0.75756063  0.97845098     0.36200
C1322       C  0.14851158  0.78777998  0.01067384     0.36200
C1323       C  0.19016085  0.67854776  0.94598885    -0.21300
C1324       C  0.14077611  0.69237593  0.94052591    -0.21300
C1325       C  0.33022181  0.79331905  0.56013651    -0.21300
C1326       C  0.28291207  0.80773737  0.55250387    -0.21300
C1327       C  0.36289626  0.68861294  0.52527687    -0.22300
C1328       C  0.37896880  0.70612789  0.55276242    -0.22300
C1329       C  0.06765100  0.77531697  0.98568624    -0.22300
C1330       C  0.09071616  0.79441835  0.00592170    -0.22300
C1331       C  0.28348649  0.68521450  0.97784678    -0.17700
C1332       C  0.10658113  0.73469496  0.95819844    -0.17700
C1333       C  0.17932240  0.79982823  0.53968267    -0.17700
C1334       C  0.34599012  0.74868239  0.56920513    -0.17700
H1335       H  0.19608067  0.65941434  0.93803922     0.15200
H1336       H  0.10201923  0.68588944  0.92750174     0.15200
H1337       H  0.37264258  0.79997228  0.56714676     0.15200
H1338       H  0.28180845  0.82754766  0.55277116     0.15200
H1339       H  0.38403197  0.67091914  0.52000444     0.13500
H1340       H  0.41494492  0.70465062  0.57207741     0.13500
H1341       H  0.02279990  0.77477222  0.97757040     0.13500
H1342       H  0.06742423  0.81118218  0.01614114     0.13500
H1343       H  0.22268633  0.73086034  0.98310343     0.26800
H1344       H  0.22897079  0.75301807  0.54913306     0.26800
N1345       N  0.75656399  0.72169610  0.92388501    -0.36000
N1346       N  0.78495565  0.77235973  0.94048860    -0.56600
N1347       N  0.68093114  0.77247933  0.51302120    -0.36000
N1348       N  0.65248586  0.72206399  0.49568617    -0.56600
C1349       C  0.81411565  0.72359476  0.90230587     0.27600
C1350       C  0.74468696  0.69743398  0.93073587     0.27600
C1351       C  0.69983321  0.79597471  0.51520231     0.27600
C1352       C  0.62884006  0.76970232  0.54239809     0.27600
C1353       C  0.83169124  0.76813669  0.90768143     0.36200
C1354       C  0.79300617  0.79509775  0.95513841     0.36200
C1355       C  0.64724772  0.69900463  0.48133447     0.36200
C1356       C  0.60353415  0.72641589  0.52676091     0.36200
C1357       C  0.83921313  0.70062273  0.89632012    -0.21300
C1358       C  0.79585366  0.68414197  0.91452758    -0.21300
C1359       C  0.65821228  0.80822150  0.54543258    -0.21300
C1360       C  0.61474779  0.79165321  0.56293334    -0.21300
C1361       C  0.86913275  0.78836681  0.90077391    -0.22300
C1362       C  0.84533806  0.80526678  0.93133584    -0.22300
C1363       C  0.59388535  0.68872305  0.50275908    -0.22300
C1364       C  0.56683826  0.70580293  0.53188410    -0.22300
C1365       C  0.84574213  0.74535336  0.88777928    -0.17700
C1366       C  0.68847742  0.68664312  0.94926836    -0.17700
C1367       C  0.59341572  0.74808813  0.55234080    -0.17700
C1368       C  0.75407397  0.80685396  0.49196932    -0.17700
H1369       H  0.88493887  0.69622641  0.88188479     0.15200
H1370       H  0.80190949  0.66450816  0.91626927     0.15200
H1371       H  0.65843436  0.82727436  0.55417867     0.15200
H1372       H  0.57714135  0.79568830  0.58790015     0.15200
H1373       H  0.91113623  0.79022116  0.87796264     0.13500
H1374       H  0.86539143  0.82278387  0.93575877     0.13500
H1375       H  0.57655236  0.67061098  0.49885051     0.13500
H1376       H  0.52511289  0.70288479  0.55428151     0.13500
H1377       H  0.72549393  0.73587527  0.92927203     0.26800
H1378       H  0.70492226  0.75872972  0.49544834     0.26800
N1379       N  0.79269338  0.87020398  0.51624167    -0.26700
N1380       N  0.78412252  0.85972218  0.55636359    -0.34500
C1381       C  0.77362511  0.83573365  0.55305437     0.01700
C1382       C  0.77349206  0.83061345  0.50882209     0.07700
C1383       C  0.78604948  0.85301184  0.48630582    -0.05400
H1384       H  0.76099677  0.82333541  0.58131939     0.08400
H1385       H  0.78673942  0.85681116  0.45121792     0.09600
Cu1386     Cu  0.76282541  0.87894593  0.61423710     0.44200
Cu1387     Cu  0.80758331  0.90807525  0.50673141     0.42000
Cu1388     Cu  0.76358654  0.94300387  0.60775905     0.43900
N1389       N  0.69674351  0.89962146  0.65106031    -0.34100
N1390       N  0.69728747  0.92375237  0.64885073    -0.28300
C1391       C  0.64060444  0.93199934  0.65771239    -0.04400
C1392       C  0.60190598  0.91211900  0.66327587     0.07800
C1393       C  0.63947082  0.89190870  0.66092077     0.01600
H1394       H  0.62837903  0.95051230  0.64937810     0.09200
H1395       H  0.62613656  0.87333363  0.65557902     0.08300
N1396       N  0.80743931  0.95803394  0.54857057    -0.35500
N1397       N  0.82180386  0.94587970  0.51132007    -0.27700
C1398       C  0.84302953  0.96200591  0.47823404    -0.02900
C1399       C  0.84149404  0.98526714  0.49565117     0.05700
C1400       C  0.81879315  0.98198124  0.54025994     0.03800
H1401       H  0.85628154  0.95727732  0.44377755     0.08900
H1402       H  0.80811207  0.99609462  0.56452617     0.07700
N1403       N  0.67370330  0.61992766  0.93786404    -0.26700
N1404       N  0.69521081  0.62709903  0.89652721    -0.34500
C1405       C  0.69667802  0.65166766  0.89398502     0.01700
C1406       C  0.67776212  0.66086315  0.93601317     0.07700
C1407       C  0.66303553  0.64002813  0.96299004    -0.05400
H1408       H  0.71700675  0.66208330  0.86467278     0.08400
H1409       H  0.65018748  0.63942337  0.99878138     0.09600
Cu1410     Cu  0.74266716  0.60453421  0.84908532     0.44200
Cu1411     Cu  0.66514982  0.58262255  0.95749242     0.42000
Cu1412     Cu  0.73441587  0.54180165  0.87097172     0.43900
N1413       N  0.81197091  0.58115722  0.82338991    -0.34100
N1414       N  0.80903776  0.55739550  0.83230787    -0.28300
C1415       C  0.86508866  0.54836717  0.82904725    -0.04400
C1416       C  0.90576325  0.56748371  0.81877372     0.07800
C1417       C  0.87009940  0.58783373  0.81390743     0.01600
H1418       H  0.87490499  0.53064074  0.84283195     0.09200
H1419       H  0.88476888  0.60670585  0.81354325     0.08300
N1420       N  0.67835784  0.52993439  0.92784448    -0.35500
N1421       N  0.65677175  0.54413608  0.96123780    -0.27700
C1422       C  0.63230927  0.52965085  0.99610006    -0.02900
C1423       C  0.63861414  0.50535352  0.98363680     0.05700
C1424       C  0.66766961  0.50635705  0.94014306     0.03800
H1425       H  0.61350037  0.53623726  0.02858858     0.08900
H1426       H  0.68432439  0.49101364  0.92001867     0.07700
O1427       O  0.10998169  0.59518345  0.83773049    -0.72300
O1428       O  0.95436546  0.59160657  0.43259360    -0.73300
O1429       O  0.07819134  0.59749663  0.43452534    -0.61900
O1430       O  0.98159071  0.59003083  0.84479420    -0.70300
O1431       O  0.98694743  0.54949512  0.84991321    -0.69900
O1432       O  0.08888612  0.55708434  0.43724923    -0.61200
O1433       O  0.96394496  0.55116749  0.43637133    -0.73700
O1434       O  0.11656859  0.55464641  0.84135732    -0.72400
Cu1435     Cu  0.02834752  0.59609067  0.38639396     1.04600
Cu1436     Cu  0.03752755  0.55280052  0.38955654     1.04300
C1437       C  0.13873188  0.57543630  0.82722777     0.93900
C1438       C  0.93631050  0.57068301  0.44951393     0.93000
C1439       C  0.09887678  0.57831317  0.45129007     0.85100
C1440       C  0.96240665  0.56892866  0.83682648     0.91400
N1441       N  0.77352194  0.62041945  0.69163631    -0.26700
N1442       N  0.80032506  0.62746953  0.65166379    -0.34500
C1443       C  0.80700533  0.65178341  0.64972089     0.01700
C1444       C  0.78029536  0.66065858  0.69002618     0.07700
C1445       C  0.76012037  0.64031598  0.71626463    -0.05400
H1446       H  0.82387919  0.66234757  0.61974988     0.08400
H1447       H  0.73428351  0.64011810  0.74948188     0.09600
Cu1448     Cu  0.81037234  0.60493993  0.59928943     0.44200
Cu1449     Cu  0.75346618  0.58410983  0.70592620     0.42000
Cu1450     Cu  0.79397566  0.54074304  0.61170978     0.43900
N1451       N  0.83003618  0.58244335  0.54730148    -0.34100
N1452       N  0.83077878  0.55833593  0.55119408    -0.28300
C1453       C  0.86467738  0.54969596  0.51414088    -0.04400
C1454       C  0.88547023  0.56959506  0.48633190     0.07800
C1455       C  0.86151320  0.58986541  0.50826303     0.01600
H1456       H  0.87818436  0.53078101  0.50982424     0.09200
H1457       H  0.87322305  0.60878127  0.49953288     0.08300
N1458       N  0.75700703  0.53110845  0.67788556    -0.35500
N1459       N  0.74515307  0.54659278  0.71094284    -0.27700
C1460       C  0.72849180  0.53401294  0.74943511    -0.02900
C1461       C  0.72872406  0.50947016  0.74044626     0.05700
C1462       C  0.74639814  0.50822616  0.69482068     0.03800
H1463       H  0.71807438  0.54219185  0.78171425     0.08900
H1464       H  0.75390723  0.49189337  0.67558847     0.07700
N1465       N  0.69157758  0.87206247  0.76162986    -0.26700
N1466       N  0.66633758  0.86132234  0.79951306    -0.34500
C1467       C  0.66351766  0.83707669  0.79401622     0.01700
C1468       C  0.68763877  0.83215843  0.75058536     0.07700
C1469       C  0.70574975  0.85467716  0.73104591    -0.05400
H1470       H  0.64831520  0.82381217  0.82044125     0.08400
H1471       H  0.73049247  0.85795215  0.69792376     0.09600
Cu1472     Cu  0.64127635  0.87896537  0.85881677     0.44200
Cu1473     Cu  0.70788084  0.90980339  0.75449044     0.42000
Cu1474     Cu  0.65832152  0.94372561  0.85526387     0.43900
N1475       N  0.61501854  0.90032493  0.91348906    -0.34100
N1476       N  0.62094698  0.92439019  0.91210025    -0.28300
C1477       C  0.59375055  0.93338052  0.95088910    -0.04400
C1478       C  0.56975142  0.91395215  0.97796251     0.07800
C1479       C  0.58417338  0.89326292  0.95328686     0.01600
H1480       H  0.58857012  0.95267411  0.95771854     0.09200
H1481       H  0.56974110  0.87466535  0.96236137     0.08300
N1482       N  0.68895126  0.96004703  0.79391199    -0.35500
N1483       N  0.70825612  0.94807728  0.75714679    -0.27700
C1484       C  0.72171768  0.96454843  0.72323345    -0.02900
C1485       C  0.70911087  0.98775683  0.73940743     0.05700
C1486       C  0.68891326  0.98419158  0.78436146     0.03800
H1487       H  0.73794398  0.96003565  0.68911687     0.08900
H1488       H  0.67335469  0.99804204  0.80826478     0.07700
N1489       N  0.70705701  0.72175753  0.67695685    -0.36000
N1490       N  0.78542417  0.72113166  0.74379558    -0.56600
N1491       N  0.76363243  0.77265300  0.75592068    -0.36000
N1492       N  0.68366491  0.77381977  0.68737093    -0.56600
C1493       C  0.72989010  0.69895998  0.67116290     0.27600
C1494       C  0.67109078  0.72576517  0.64613087     0.27600
C1495       C  0.81308361  0.76999826  0.77550994     0.27600
C1496       C  0.75578408  0.79689496  0.74926766     0.27600
C1497       C  0.78824929  0.69710800  0.73458570     0.36200
C1498       C  0.82035351  0.72452296  0.77504142     0.36200
C1499       C  0.63506948  0.76712395  0.66946525     0.36200
C1500       C  0.66891867  0.79501332  0.70860568     0.36200
C1501       C  0.70819222  0.68855943  0.63569354    -0.21300
C1502       C  0.67142045  0.70543751  0.62005591    -0.21300
C1503       C  0.83634716  0.79288503  0.78187054    -0.21300
C1504       C  0.79996656  0.80985932  0.76556390    -0.21300
C1505       C  0.82466128  0.68505455  0.76064179    -0.22300
C1506       C  0.84553299  0.70245604  0.78574551    -0.22300
C1507       C  0.59020277  0.78445189  0.67868907    -0.22300
C1508       C  0.61196368  0.80234122  0.70268077    -0.22300
C1509       C  0.76496275  0.68643098  0.69931857    -0.17700
C1510       C  0.62989559  0.74517647  0.64631197    -0.17700
C1511       C  0.70573091  0.80760710  0.73397013    -0.17700
C1512       C  0.83730053  0.74760642  0.78867537    -0.17700
H1513       H  0.71416689  0.67015317  0.62370896     0.15200
H1514       H  0.64475990  0.70230771  0.59444611     0.15200
H1515       H  0.87506049  0.79698168  0.79721343     0.15200
H1516       H  0.80498364  0.82954028  0.76620285     0.15200
H1517       H  0.83830445  0.66605482  0.75963110     0.13500
H1518       H  0.87906603  0.69941730  0.80677331     0.13500
H1519       H  0.54542294  0.78372919  0.67092586     0.13500
H1520       H  0.58752672  0.81826980  0.71611671     0.13500
H1521       H  0.70840924  0.73249649  0.70428092     0.26800
H1522       H  0.73259847  0.75911908  0.75210903     0.26800
O1523       O  0.37980524  0.89675236  0.05098039    -0.72300
O1524       O  0.50348766  0.89644010  0.13151892    -0.73300
O1525       O  0.37508284  0.89755947  0.14364997    -0.61900
O1526       O  0.50601079  0.89534019  0.03892246    -0.70300
O1527       O  0.50984663  0.93599677  0.03512245    -0.69900
O1528       O  0.37625177  0.93822977  0.13949744    -0.61200
O1529       O  0.50592082  0.93709554  0.12821772    -0.73700
O1530       O  0.38329233  0.93739045  0.04642762    -0.72400
Cu1531     Cu  0.44103967  0.89516804  0.09192153     1.04600
Cu1532     Cu  0.44396766  0.93864312  0.08776838     1.04300
C1533       C  0.36331009  0.91704536  0.03504834     0.93900
C1534       C  0.54576450  0.91218161  0.64473292     0.93000
C1535       C  0.37231290  0.91259264  0.65648087     0.85100
C1536       C  0.52730362  0.91520077  0.01967494     0.91400
loop_ 
_geom_bond_atom_site_label_1 
_geom_bond_atom_site_label_2 
_geom_bond_distance 
_geom_bond_site_symmetry_2 
_ccdc_geom_bond_type 
N1            C5   1.356       .  A
N1            C2   1.368       .  A
N1           C74   1.446       .  S
C2            C3   1.395       .  A
C2            C9   1.509       .  S
C3            C4   1.365       .  A
C3            H6   1.071       .  S
C4            C5   1.369       .  A
C4            H7   1.082       .  S
C5          C276   1.480       .  S
N8           C12   1.359       .  A
N8            C9   1.367       .  A
N8          C312   1.445       .  S
C9           C10   1.390       .  A
C10          C11   1.376       .  A
C10          H13   1.075       .  S
C11          C12   1.378       .  A
C11          H14   1.082       .  S
C12         C131   1.498       .  S
N15          C19   1.362       .  A
N15          C16   1.379   1_455  A
N15          C76   1.460       .  S
C16          C17   1.396       .  A
C16          C23   1.509       .  S
C17          C18   1.361   1_655  A
C17          H20   1.072       .  S
C18          C19   1.368       .  A
C18          H21   1.082       .  S
C19         C278   1.493       .  S
N22          C26   1.370       .  A
N22          C23   1.377       .  A
N22         C133   1.459       .  S
C23          C24   1.388       .  A
C24          C25   1.365       .  A
C24          H27   1.069   1_655  S
C25          C26   1.377       .  A
C25          H28   1.082       .  S
C26         C310   1.519       .  S
N29          C33   1.356       .  A
N29          N30   1.322       .  A
N29         Cu37   2.113       .  S
N30          C31   1.341       .  A
N30         Cu36   2.076       .  S
C31          C32   1.387       .  A
C31          H34   1.082       .  S
C32          C33   1.397       .  A
C32          C73   1.507       .  S
C33          H35   1.082       .  S
Cu36         N39   2.077       .  S
Cu37         N47   2.114       .  S
Cu38         N40   2.073       .  S
Cu38         N46   2.073       .  S
N39          C43   1.344       .  A
N39          N40   1.318       .  A
N40          C41   1.346       .  A
C41          C42   1.389       .  A
C41          H44   1.082       .  S
C42          C43   1.390       .  A
C42         C206   1.477       .  S
C43          H45   1.082       .  S
N46          C50   1.346       .  A
N46          N47   1.325       .  A
N47          C48   1.350       .  A
C48          C49   1.389       .  A
C48          H51   1.082       .  S
C49          C50   1.381       .  A
C49        C1307   1.479   1_545  S
C50          H52   1.082   1_545  S
N53          C58   1.358       .  A
N53          C57   1.358       .  A
N53          H85   1.041       .  S
N54          C61   1.357   1_554  A
N54          C62   1.357       .  A
N55          C60   1.359       .  A
N55          C59   1.362       .  A
N55          H86   1.039       .  S
N56          C63   1.352       .  A
N56          C64   1.354       .  A
C57          C65   1.390       .  A
C57          C73   1.425       .  A
C58          C74   1.412       .  A
C58          C66   1.380       .  A
C59          C67   1.379       .  A
C59          C76   1.419       .  A
C60          C75   1.426       .  A
C60          C68   1.387       .  A
C61          C69   1.385   1_556  A
C61         C841   1.424       .  A
C62          C76   1.430       .  A
C62          C70   1.387       .  A
C63          C71   1.383       .  A
C63          C74   1.412       .  A
C64          C72   1.388       .  A
C64         C843   1.420       .  A
C65          C66   1.370       .  A
C65          H77   1.082       .  S
C66          H78   1.082       .  S
C67          C68   1.368       .  A
C67          H79   1.071       .  S
C68          H80   1.082       .  S
C69          C70   1.377       .  A
C69          H81   1.081       .  S
C70          H82   1.078       .  S
C71          C72   1.372       .  A
C71          H83   1.082       .  S
C72          H84   1.080       .  S
C73         C829   1.423       .  A
C75         C832   1.418   1_554  A
C75          C90   1.499       .  S
N87          C91   1.351   1_554  A
N87          N88   1.322       .  A
N87         Cu95   2.103       .  S
N88          C89   1.340       .  A
N88         Cu94   2.061       .  S
C89          C90   1.385       .  A
C89          H92   1.083       .  S
C90          C91   1.394   1_554  A
C91          H93   1.082       .  S
Cu94         N97   2.066       .  S
Cu95        N105   2.105       .  S
Cu96         N98   2.065       .  S
Cu96        N104   2.067       .  S
N97         C101   1.345       .  A
N97          N98   1.318       .  A
N98          C99   1.342       .  A
C99         C100   1.385       .  A
C99         H102   1.082       .  S
C100        C101   1.387       .  A
C100       C1150   1.471       .  S
C101        H103   1.082       .  S
N104        C108   1.346       .  A
N104        N105   1.324       .  A
N105        C106   1.348   1_554  A
C106        C107   1.388   1_556  A
C106        H109   1.082       .  S
C107        C108   1.381       .  A
C107       C1283   1.477   1_554  S
C108        H110   1.081       .  S
N111        C116   1.357       .  A
N111        C115   1.356       .  A
N111        H143   1.039       .  S
N112        C119   1.356       .  A
N112        C120   1.355       .  A
N113        C118   1.357       .  A
N113        C117   1.353       .  A
N113        H144   1.036       .  S
N114        C121   1.353       .  A
N114        C122   1.353       .  A
C115        C123   1.392       .  A
C115        C131   1.428       .  A
C116        C124   1.383       .  A
C116        C900   1.416       .  A
C117        C125   1.387       .  A
C117        C902   1.422   1_554  A
C118        C133   1.422       .  A
C118        C126   1.384       .  A
C119        C131   1.418       .  A
C119        C127   1.384       .  A
C120        C134   1.425       .  A
C120        C128   1.389       .  A
C121        C129   1.384       .  A
C121        C132   1.415       .  A
C122        C130   1.386       .  A
C122        C133   1.424       .  A
C123        C124   1.375       .  A
C123        H135   1.080       .  S
C124        H136   1.082       .  S
C125        C126   1.377       .  A
C125        H137   1.081       .  S
C126        H138   1.077       .  S
C127        C128   1.370       .  A
C127        H139   1.080       .  S
C128        H140   1.082       .  S
C129        C130   1.372       .  A
C129        H141   1.083       .  S
C130        H142   1.079       .  S
C132        C884   1.414       .  A
C132        C172   1.487       .  S
C134        C885   1.419       .  A
C134        C148   1.483       .  S
N145        C149   1.348       .  A
N145        N146   1.323       .  A
N145       Cu153   2.086       .  S
N146        C147   1.340       .  A
N146       Cu152   2.060       .  S
C147        C148   1.379       .  A
C147        H150   1.082       .  S
C148        C149   1.387       .  A
C149        H151   1.082       .  S
Cu152       N155   2.060       .  S
Cu153       N163   2.087       .  S
Cu154       N156   2.061       .  S
Cu154       N162   2.066       .  S
N155        C159   1.345       .  A
N155        N156   1.318       .  A
N156        C157   1.341       .  A
C157        C158   1.387       .  A
C157        H160   1.082       .  S
C158        C159   1.388       .  A
C158        C203   1.476       .  S
C159        H161   1.081       .  S
N162        C166   1.345       .  A
N162        N163   1.323       .  A
N163        C164   1.346       .  A
C164        C165   1.386       .  A
C164        H167   1.082       .  S
C165        C166   1.381       .  A
C165       C1399   1.473   1_545  S
C166        H168   1.082   1_545  S
N169        C173   1.352       .  A
N169        N170   1.324       .  A
N169       Cu177   2.103       .  S
N170        C171   1.342       .  A
N170       Cu176   2.062       .  S
C171        C172   1.378       .  A
C171        H174   1.082       .  S
C172        C173   1.389       .  A
C173        H175   1.082   1_554  S
Cu176       N179   2.057       .  S
Cu177       N187   2.103       .  S
Cu178       N180   2.063       .  S
Cu178       N186   2.065       .  S
N179        C183   1.343       .  A
N179        N180   1.319       .  A
N180        C181   1.342       .  A
C181        C182   1.384       .  A
C181        H184   1.081       .  S
C182        C183   1.386       .  A
C182       C1151   1.469       .  S
C183        H185   1.081       .  S
N186        C190   1.346       .  A
N186        N187   1.324       .  A
N187        C188   1.347   1_554  A
C188        C189   1.389   1_556  A
C188        H191   1.082       .  S
C189        C190   1.381       .  A
C189       C1423   1.477   1_554  S
C190        H192   1.082       .  S
O193        C203   1.276       .  A
O193       Cu969   2.002       .  S
O194        C204   1.282       .  A
O194       Cu201   2.019       .  S
O195        C205   1.273       .  A
O195       Cu201   1.978       .  S
O196        C206   1.276       .  A
O196       Cu969   1.996       .  S
O197        C206   1.280       .  A
O197       Cu970   2.021       .  S
O198        C205   1.281       .  A
O198       Cu202   2.025       .  S
O199        C204   1.275       .  A
O199       Cu202   2.011       .  S
O200        C203   1.279       .  A
O200       Cu970   2.007       .  S
Cu201       O961   2.009       .  S
Cu201       O964   1.986       .  S
Cu201      Cu202   2.374       .  S
Cu202       O965   2.029       .  S
Cu202       O968   2.006       .  S
C204        C220   1.474   1_556  S
C205        C336   1.464       .  S
N207        C211   1.345       .  A
N207        N208   1.318       .  A
N207       Cu215   2.056       .  S
N208        C209   1.335       .  A
N208       Cu214   2.032       .  S
C209        C210   1.375       .  A
C209        H212   1.082       .  S
C210        C211   1.384       .  A
C210        C275   1.472       .  S
C211        H213   1.082       .  S
Cu214       N217   2.032       .  S
Cu215       N225   2.060       .  S
Cu216       N218   2.109       .  S
Cu216       N224   2.111       .  S
N217        C221   1.338       .  A
N217        N218   1.319       .  A
N218        C219   1.354       .  A
C219        C220   1.396       .  A
C219        H222   1.082       .  S
C220        C221   1.375       .  A
C221        H223   1.082       .  S
N224        C228   1.346       .  A
N224        N225   1.327       .  A
N225        C226   1.344       .  A
C226        C227   1.374       .  A
C226        H229   1.081       .  S
C227        C228   1.384       .  A
C227        C433   1.466   1_545  S
C228        H230   1.079   1_545  S
N231        C235   1.350       .  A
N231        N232   1.323       .  A
N231       Cu239   2.088       .  S
N232        C233   1.341       .  A
N232       Cu238   2.065       .  S
C233        C234   1.379       .  A
C233        H236   1.082       .  S
C234        C235   1.384       .  A
C234        C277   1.481       .  S
C235        H237   1.079       .  S
Cu238       N241   2.064       .  S
Cu239       N249   2.089       .  S
Cu240       N242   2.051       .  S
Cu240       N248   2.052       .  S
N241        C245   1.342       .  A
N241        N242   1.319       .  A
N242        C243   1.343       .  A
C243        C244   1.381       .  A
C243        H246   1.082       .  S
C244        C245   1.383       .  A
C244        C384   1.462       .  S
C245        H247   1.082       .  S
N248        C252   1.341       .  A
N248        N249   1.323       .  A
N249        C250   1.346       .  A
C250        C251   1.382       .  A
C250        H253   1.078       .  S
C251        C252   1.377       .  A
C251        C491   1.465       .  S
C252        H254   1.082       .  S
N255        C260   1.355       .  A
N255        C259   1.352       .  A
N255        H287   1.035       .  S
N256        C263   1.350       .  A
N256        C264   1.352       .  A
N257        C262   1.359       .  A
N257        C261   1.359       .  A
N257        H288   1.042       .  S
N258        C265   1.351       .  A
N258        C266   1.348       .  A
C259        C267   1.387       .  A
C259        C275   1.414       .  A
C260        C276   1.417       .  A
C260        C268   1.388       .  A
C261        C269   1.384       .  A
C261        C278   1.422       .  A
C262        C277   1.416       .  A
C262        C270   1.384       .  A
C263        C275   1.417       .  A
C263        C271   1.389       .  A
C264        C278   1.408       .  A
C264        C272   1.384       .  A
C265        C273   1.386       .  A
C265        C276   1.412       .  A
C266        C274   1.387       .  A
C266        C277   1.409       .  A
C267        C268   1.366       .  A
C267        H279   1.082       .  S
C268        H280   1.080       .  S
C269        C270   1.373       .  A
C269        H281   1.073       .  S
C270        H282   1.082       .  S
C271        C272   1.364       .  A
C271        H283   1.081       .  S
C272        H284   1.081       .  S
C273        C274   1.369       .  A
C273        H285   1.082       .  S
C274        H286   1.082       .  S
N289        C294   1.364       .  A
N289        C293   1.358       .  A
N289        H321   1.041       .  S
N290        C297   1.355       .  A
N290        C298   1.355       .  A
N291        C296   1.355       .  A
N291        C295   1.354       .  A
N291        H322   1.036       .  S
N292        C299   1.352       .  A
N292        C300   1.352       .  A
C293        C301   1.381       .  A
C293        C309   1.419       .  A
C294        C310   1.429       .  A
C294        C302   1.383       .  A
C295        C303   1.384       .  A
C295        C312   1.414       .  A
C296        C311   1.417       .  A
C296        C304   1.387       .  A
C297        C309   1.419       .  A
C297        C305   1.386       .  A
C298        C312   1.423       .  A
C298        C306   1.386       .  A
C299        C307   1.386       .  A
C299        C310   1.421       .  A
C300        C308   1.385       .  A
C300        C311   1.416       .  A
C301        C302   1.366       .  A
C301        H313   1.082       .  S
C302        H314   1.064       .  S
C303        C304   1.365       .  A
C303        H315   1.080       .  S
C304        H316   1.082       .  S
C305        C306   1.376       .  A
C305        H317   1.081       .  S
C306        H318   1.082       .  S
C307        C308   1.370       .  A
C307        H319   1.080       .  S
C308        H320   1.078       .  S
C309        C326   1.500       .  S
C311        C350   1.486       .  S
N323        C327   1.351       .  A
N323        N324   1.322       .  A
N323       Cu331   2.095       .  S
N324        C325   1.344       .  A
N324       Cu330   2.084       .  S
C325        C326   1.388       .  A
C325        H328   1.082       .  S
C326        C327   1.390       .  A
C327        H329   1.079       .  S
Cu330       N333   2.082       .  S
Cu331       N341   2.095       .  S
Cu332       N334   2.049       .  S
Cu332       N340   2.049       .  S
N333        C337   1.342       .  A
N333        N334   1.321       .  A
N334        C335   1.344       .  A
C335        C336   1.379   1_554  A
C335        H338   1.082       .  S
C336        C337   1.385   1_556  A
C337        H339   1.082       .  S
N340        C344   1.345       .  A
N340        N341   1.323       .  A
N341        C342   1.343       .  A
C342        C343   1.380       .  A
C342        H345   1.074       .  S
C343        C344   1.379       .  A
C343        C717   1.468   1_545  S
C344        H346   1.082       .  S
N347        C351   1.347       .  A
N347        N348   1.320       .  A
N347       Cu355   2.069       .  S
N348        C349   1.341       .  A
N348       Cu354   2.063       .  S
C349        C350   1.383       .  A
C349        H352   1.082       .  S
C350        C351   1.386       .  A
C351        H353   1.082       .  S
Cu354       N357   2.062       .  S
Cu355       N365   2.071       .  S
Cu356       N358   2.079       .  S
Cu356       N364   2.080       .  S
N357        C361   1.342       .  A
N357        N358   1.322       .  A
N358        C359   1.347       .  A
C359        C360   1.386       .  A
C359        H362   1.082       .  S
C360        C361   1.380       .  A
C360        C381   1.467       .  S
C361        H363   1.082       .  S
N364        C368   1.347       .  A
N364        N365   1.324       .  A
N365        C366   1.343       .  A
C366        C367   1.377       .  A
C366        H369   1.078       .  S
C367        C368   1.383       .  A
C367        C693   1.467       .  S
C368        H370   1.081       .  S
O371        C381   1.278       .  A
O371       Cu379   2.009       .  S
O372        C382   1.277       .  A
O372       Cu379   2.000   1_455  S
O373        C383   1.276       .  A
O373       Cu379   1.989       .  S
O374        C384   1.275       .  A
O374       Cu379   1.993   1_455  S
O375        C384   1.278       .  A
O375       Cu380   2.008   1_455  S
O376        C383   1.278       .  A
O376       Cu380   2.003       .  S
O377        C382   1.277       .  A
O377       Cu380   2.000   1_455  S
O378        C381   1.277       .  A
O378       Cu380   2.007       .  S
Cu379      Cu380   2.376       .  S
C382        C868   1.467       .  S
C383        C950   1.467       .  S
N385        C389   1.366       .  A
N385        C386   1.375       .  A
N385        C566   1.453       .  S
C386        C387   1.387       .  A
C386        C393   1.505       .  S
C387        C388   1.365       .  A
C387        H390   1.068       .  S
C388        C389   1.377       .  A
C388        H391   1.082       .  S
C389        C458   1.515       .  S
N392        C396   1.363       .  A
N392        C393   1.378       .  A
N392        C599   1.461       .  S
C393        C394   1.395       .  A
C394        C395   1.364       .  A
C394        H397   1.076       .  S
C395        C396   1.369       .  A
C395        H398   1.082       .  S
C396        C742   1.492       .  S
N399        C403   1.360       .  A
N399        C400   1.369   1_455  A
N399        C460   1.447       .  S
C400        C401   1.389       .  A
C400        C407   1.510       .  S
C401        C402   1.375       .  A
C401        H404   1.075       .  S
C402        C403   1.379   1_655  A
C402        H405   1.082       .  S
C403        C564   1.499       .  S
N406        C410   1.357       .  A
N406        C407   1.370       .  A
N406        C597   1.448       .  S
C407        C408   1.395       .  A
C408        C409   1.365       .  A
C408        H411   1.071   1_655  S
C409        C410   1.369       .  A
C409        H412   1.082       .  S
C410        C744   1.480       .  S
N413        C417   1.346       .  A
N413        N414   1.322       .  A
N413       Cu421   2.066       .  S
N414        C415   1.341       .  A
N414       Cu420   2.076       .  S
C415        C416   1.384       .  A
C415        H418   1.082       .  S
C416        C417   1.383       .  A
C416        C459   1.483       .  S
C417        H419   1.082       .  S
Cu420       N423   2.076       .  S
Cu421       N431   2.067       .  S
Cu422       N424   2.072       .  S
Cu422       N430   2.072       .  S
N423        C427   1.346       .  A
N423        N424   1.322       .  A
N424        C425   1.345       .  A
C425        C426   1.383       .  A
C425        H428   1.082       .  S
C426        C427   1.385       .  A
C426        C765   1.471       .  S
C427        H429   1.082       .  S
N430        C434   1.346       .  A
N430        N431   1.322       .  A
N431        C432   1.342       .  A
C432        C433   1.376       .  A
C432        H435   1.074       .  S
C433        C434   1.382       .  A
C434        H436   1.082       .  S
N437        C442   1.363       .  A
N437        C441   1.353       .  A
N437        H469   1.042       .  S
N438        C445   1.354       .  A
N438        C446   1.355       .  A
N439        C444   1.355       .  A
N439        C443   1.355       .  A
N439        H470   1.036       .  S
N440        C447   1.350       .  A
N440        C448   1.348       .  A
C441        C449   1.384       .  A
C441        C457   1.416       .  A
C442        C458   1.425       .  A
C442        C450   1.385       .  A
C443        C451   1.383       .  A
C443        C460   1.413       .  A
C444        C459   1.416       .  A
C444        C452   1.386       .  A
C445        C457   1.418       .  A
C445        C453   1.387       .  A
C446        C460   1.422       .  A
C446        C454   1.385       .  A
C447        C455   1.385       .  A
C447        C458   1.414       .  A
C448        C456   1.386       .  A
C448        C459   1.413       .  A
C449        C450   1.371       .  A
C449        H461   1.082       .  S
C450        H462   1.070       .  S
C451        C452   1.365       .  A
C451        H463   1.078       .  S
C452        H464   1.082       .  S
C453        C454   1.376       .  A
C453        H465   1.081       .  S
C454        H466   1.082       .  S
C455        C456   1.371       .  A
C455        H467   1.081       .  S
C456        H468   1.077       .  S
C457        C474   1.490       .  S
N471        C475   1.348       .  A
N471        N472   1.322       .  A
N471       Cu479   2.079       .  S
N472        C473   1.342       .  A
N472       Cu478   2.073       .  S
C473        C474   1.385       .  A
C473        H476   1.082       .  S
C474        C475   1.387       .  A
C475        H477   1.081       .  S
Cu478       N481   2.071       .  S
Cu479       N489   2.080       .  S
Cu480       N482   2.057       .  S
Cu480       N488   2.057       .  S
N481        C485   1.342       .  A
N481        N482   1.321       .  A
N482        C483   1.345       .  A
C483        C484   1.381   1_554  A
C483        H486   1.082   1_554  S
C484        C485   1.384   1_556  A
C484        C671   1.465       .  S
C485        H487   1.082   1_554  S
N488        C492   1.344       .  A
N488        N489   1.323       .  A
N489        C490   1.343       .  A
C490        C491   1.380       .  A
C490        H493   1.077       .  S
C491        C492   1.378       .  A
C492        H494   1.081       .  S
N495        C499   1.350       .  A
N495        N496   1.323       .  A
N495       Cu503   2.098       .  S
N496        C497   1.341       .  A
N496       Cu502   2.058       .  S
C497        C498   1.380       .  A
C497        H500   1.082       .  S
C498        C499   1.389       .  A
C498        C563   1.488       .  S
C499        H501   1.082       .  S
Cu502       N505   2.058       .  S
Cu503       N513   2.098       .  S
Cu504       N506   2.063       .  S
Cu504       N512   2.066       .  S
N505        C509   1.345       .  A
N505        N506   1.318       .  A
N506        C507   1.341       .  A
C507        C508   1.387       .  A
C507        H510   1.082       .  S
C508        C509   1.386       .  A
C508        C669   1.474       .  S
C509        H511   1.082       .  S
N512        C516   1.345       .  A
N512        N513   1.324       .  A
N513        C514   1.348       .  A
C514        C515   1.389       .  A
C514        H517   1.082       .  S
C515        C516   1.380       .  A
C515        C875   1.476       .  S
C516        H518   1.082       .  S
N519        C523   1.351       .  A
N519        N520   1.325       .  A
N519       Cu527   2.102       .  S
N520        C521   1.343       .  A
N520       Cu526   2.068       .  S
C521        C522   1.380       .  A
C521        H524   1.082       .  S
C522        C523   1.388       .  A
C522        C565   1.487       .  S
C523        H525   1.082   1_554  S
Cu526       N529   2.061       .  S
Cu527       N537   2.101       .  S
Cu528       N530   2.056       .  S
Cu528       N536   2.059       .  S
N529        C533   1.344       .  A
N529        N530   1.319       .  A
N530        C531   1.340       .  A
C531        C532   1.381       .  A
C531        H534   1.081       .  S
C532        C533   1.387       .  A
C532        C767   1.467       .  S
C533        H535   1.081       .  S
N536        C540   1.345       .  A
N536        N537   1.323       .  A
N537        C538   1.348   1_554  A
C538        C539   1.389   1_556  A
C538        H541   1.082       .  S
C539        C540   1.380       .  A
C539        C817   1.476   1_564  S
C540        H542   1.082       .  S
N543        C548   1.361       .  A
N543        C547   1.357       .  A
N543        H575   1.032       .  S
N544        C551   1.350       .  A
N544        C552   1.352       .  A
N545        C550   1.356       .  A
N545        C549   1.353       .  A
N545        H576   1.040       .  S
N546        C553   1.351       .  A
N546        C554   1.353       .  A
C547        C555   1.391       .  A
C547        C563   1.432       .  A
C548        C564   1.425       .  A
C548        C556   1.385       .  A
C549        C557   1.386       .  A
C549        C566   1.420       .  A
C550        C565   1.413       .  A
C550        C558   1.385       .  A
C551        C559   1.389       .  A
C551       C1331   1.420   1_554  A
C552        C566   1.410       .  A
C552        C560   1.381       .  A
C553        C561   1.393       .  A
C553        C564   1.427       .  A
C554        C562   1.381       .  A
C554       C1333   1.411       .  A
C555        C556   1.374       .  A
C555        H567   1.082       .  S
C556        H568   1.081       .  S
C557        C558   1.372       .  A
C557        H569   1.079       .  S
C558        H570   1.083       .  S
C559        C560   1.376       .  A
C559        H571   1.081       .  S
C560        H572   1.079       .  S
C561        C562   1.372       .  A
C561        H573   1.080       .  S
C562        H574   1.082       .  S
C563       C1319   1.421       .  A
C565       C1322   1.410       .  A
N577        C582   1.357       .  A
N577        C581   1.358       .  A
N577        H609   1.041       .  S
N578        C585   1.352       .  A
N578        C586   1.353       .  A
N579        C584   1.362       .  A
N579        C583   1.360       .  A
N579        H610   1.037   1_554  S
N580        C587   1.357       .  A
N580        C588   1.357   1_556  A
C581        C589   1.380       .  A
C581        C597   1.412       .  A
C582        C598   1.423       .  A
C582        C590   1.390       .  A
C583        C591   1.388       .  A
C583        C600   1.430   1_554  A
C584        C599   1.421       .  A
C584        C592   1.379       .  A
C585        C597   1.413       .  A
C585        C593   1.382       .  A
C586        C594   1.389       .  A
C586       C1368   1.422       .  A
C587        C595   1.384   1_556  A
C587       C1366   1.424       .  A
C588        C596   1.388       .  A
C588        C599   1.432       .  A
C589        C590   1.370       .  A
C589        H601   1.082       .  S
C590        H602   1.082       .  S
C591        C592   1.369       .  A
C591        H603   1.082       .  S
C592        H604   1.072       .  S
C593        C594   1.374       .  A
C593        H605   1.082       .  S
C594        H606   1.080       .  S
C595        C596   1.376       .  A
C595        H607   1.081   1_554  S
C596        H608   1.077       .  S
C598       C1355   1.422       .  A
C598        C638   1.503       .  S
C600       C1354   1.420       .  A
C600        C614   1.502   1_556  S
N611        C615   1.354   1_554  A
N611        N612   1.322       .  A
N611       Cu619   2.110       .  S
N612        C613   1.341       .  A
N612       Cu618   2.068       .  S
C613        C614   1.384       .  A
C613        H616   1.082       .  S
C614        C615   1.395   1_554  A
C615        H617   1.082       .  S
Cu618       N621   2.069       .  S
Cu619       N629   2.112       .  S
Cu620       N622   2.063       .  S
Cu620       N628   2.065       .  S
N621        C625   1.344       .  A
N621        N622   1.318       .  A
N622        C623   1.344       .  A
C623        C624   1.386       .  A
C623        H626   1.082       .  S
C624        C625   1.388       .  A
C624        C766   1.472       .  S
C625        H627   1.082       .  S
N628        C632   1.344       .  A
N628        N629   1.325       .  A
N629        C630   1.350   1_554  A
C630        C631   1.390       .  A
C630        H633   1.082       .  S
C631        C632   1.380   1_556  A
C631        C933   1.478   1_565  S
C632        H634   1.082       .  S
N635        C639   1.354       .  A
N635        N636   1.323       .  A
N635       Cu643   2.110       .  S
N636        C637   1.342       .  A
N636       Cu642   2.073       .  S
C637        C638   1.386       .  A
C637        H640   1.083       .  S
C638        C639   1.395       .  A
C639        H641   1.082       .  S
Cu642       N645   2.073       .  S
Cu643       N653   2.110       .  S
Cu644       N646   2.064       .  S
Cu644       N652   2.066       .  S
N645        C649   1.344       .  A
N645        N646   1.318       .  A
N646        C647   1.343       .  A
C647        C648   1.387       .  A
C647        H650   1.082       .  S
C648        C649   1.390       .  A
C648        C672   1.473       .  S
C649        H651   1.083       .  S
N652        C656   1.344       .  A
N652        N653   1.325       .  A
N653        C654   1.351       .  A
C654        C655   1.390       .  A
C654        H657   1.082       .  S
C655        C656   1.379       .  A
C655        C957   1.477       .  S
C656        H658   1.082       .  S
O659        C669   1.278       .  A
O659      Cu1435   2.012       .  S
O660        C670   1.281       .  A
O660       Cu667   2.014   1_655  S
O661        C671   1.274       .  A
O661       Cu667   1.983       .  S
O662        C672   1.276       .  A
O662      Cu1435   1.995   1_655  S
O663        C672   1.280       .  A
O663      Cu1436   2.013   1_655  S
O664        C671   1.281       .  A
O664       Cu668   2.025       .  S
O665        C670   1.273       .  A
O665       Cu668   1.998   1_655  S
O666        C669   1.277       .  A
O666      Cu1436   2.000       .  S
Cu667      O1427   2.009       .  S
Cu667      O1430   1.990   1_455  S
Cu667      Cu668   2.374       .  S
Cu668      O1431   2.026   1_455  S
Cu668      O1434   1.994       .  S
C670        C686   1.467       .  S
N673        C677   1.346       .  A
N673        N674   1.318       .  A
N673       Cu681   2.070       .  S
N674        C675   1.335       .  A
N674       Cu680   2.020       .  S
C675        C676   1.373       .  A
C675        H678   1.082       .  S
C676        C677   1.387       .  A
C676        C741   1.472       .  S
C677        H679   1.082       .  S
Cu680       N683   2.020       .  S
Cu681       N691   2.074       .  S
Cu682       N684   2.100       .  S
Cu682       N690   2.103       .  S
N683        C687   1.336       .  A
N683        N684   1.318       .  A
N684        C685   1.352       .  A
C685        C686   1.394   1_554  A
C685        H688   1.082       .  S
C686        C687   1.373   1_556  A
C687        H689   1.082       .  S
N690        C694   1.346       .  A
N690        N691   1.328       .  A
N691        C692   1.345       .  A
C692        C693   1.376       .  A
C692        H695   1.081       .  S
C693        C694   1.383       .  A
C694        H696   1.080       .  S
N697        C701   1.348       .  A
N697        N698   1.322       .  A
N697       Cu705   2.081       .  S
N698        C699   1.339       .  A
N698       Cu704   2.054       .  S
C699        C700   1.379       .  A
C699        H702   1.082       .  S
C700        C701   1.385       .  A
C700        C743   1.476       .  S
C701        H703   1.082       .  S
Cu704       N707   2.052       .  S
Cu705       N715   2.081       .  S
Cu706       N708   2.064       .  S
Cu706       N714   2.064       .  S
N707        C711   1.341       .  A
N707        N708   1.320       .  A
N708        C709   1.343       .  A
C709        C710   1.384       .  A
C709        H712   1.082       .  S
C710        C711   1.380       .  A
C710        C768   1.460       .  S
C711        H713   1.082       .  S
N714        C718   1.342       .  A
N714        N715   1.323       .  A
N715        C716   1.346       .  A
C716        C717   1.383       .  A
C716        H719   1.080       .  S
C717        C718   1.379       .  A
C718        H720   1.082       .  S
N721        C726   1.353       .  A
N721        C725   1.352       .  A
N721        H753   1.034       .  S
N722        C729   1.349       .  A
N722        C730   1.349       .  A
N723        C728   1.349       .  A
N723        C727   1.355       .  A
N723        H754   1.036       .  S
N724        C731   1.357       .  A
N724        C732   1.355       .  A
C725        C733   1.391       .  A
C725        C741   1.419       .  A
C726        C742   1.407       .  A
C726        C734   1.382       .  A
C727        C735   1.387       .  A
C727        C744   1.414       .  A
C728        C743   1.412       .  A
C728        C736   1.388       .  A
C729        C741   1.410       .  A
C729        C737   1.386       .  A
C730        C744   1.412       .  A
C730        C738   1.386       .  A
C731        C739   1.383       .  A
C731        C742   1.420       .  A
C732        C740   1.383       .  A
C732        C743   1.413       .  A
C733        C734   1.369       .  A
C733        H745   1.080       .  S
C734        H746   1.078       .  S
C735        C736   1.374       .  A
C735        H747   1.082       .  S
C736        H748   1.082       .  S
C737        C738   1.368       .  A
C737        H749   1.082       .  S
C738        H750   1.079       .  S
C739        C740   1.372       .  A
C739        H751   1.072       .  S
C740        H752   1.083       .  S
O755        C765   1.277       .  A
O755       Cu763   2.009       .  S
O756       C1534   1.276       .  A
O756       Cu763   1.997       .  S
O757       C1535   1.277       .  A
O757       Cu763   1.997       .  S
O758        C768   1.277       .  A
O758       Cu763   2.001       .  S
O759        C768   1.275       .  A
O759       Cu764   1.994       .  S
O760       C1535   1.276       .  A
O760       Cu764   1.990       .  S
O761       C1534   1.278       .  A
O761       Cu764   2.005       .  S
O762        C765   1.279       .  A
O762       Cu764   2.018       .  S
Cu763      Cu764   2.376       .  S
C766       O1524   1.277       .  A
C766       O1529   1.278       .  A
C767       O1525   1.275       .  A
C767       O1528   1.279       .  A
N769        C773   1.357       .  A
N769        C770   1.369       .  A
N769        C842   1.447       .  S
C770        C771   1.395       .  A
C770        C777   1.510       .  S
C771        C772   1.363       .  A
C771        H774   1.070       .  S
C772        C773   1.369       .  A
C772        H775   1.082       .  S
C773       C1044   1.482       .  S
N776        C780   1.356       .  A
N776        C777   1.367       .  A
N776       C1080   1.443       .  S
C777        C778   1.390       .  A
C778        C779   1.378       .  A
C778        H781   1.076       .  S
C779        C780   1.379       .  A
C779        H782   1.082   1_556  S
C780        C899   1.496       .  S
N783        C787   1.360       .  A
N783        C784   1.378       .  A
N783        C844   1.460       .  S
C784        C785   1.396   1_455  A
C784        C791   1.507   1_455  S
C785        C786   1.364   1_655  A
C785        H788   1.074       .  S
C786        C787   1.368       .  A
C786        H789   1.082       .  S
C787       C1046   1.491       .  S
N790        C794   1.369       .  A
N790        C791   1.377       .  A
N790        C901   1.458       .  S
C791        C792   1.388       .  A
C792        C793   1.363       .  A
C792        H795   1.067   1_655  S
C793        C794   1.375       .  A
C793        H796   1.082       .  S
C794       C1078   1.516       .  S
N797        C801   1.354       .  A
N797        N798   1.323       .  A
N797       Cu805   2.104       .  S
N798        C799   1.341       .  A
N798       Cu804   2.081       .  S
C799        C800   1.388       .  A
C799        H802   1.082       .  S
C800        C801   1.394       .  A
C800        C841   1.503       .  S
C801        H803   1.082   1_556  S
Cu804       N807   2.081       .  S
Cu805       N815   2.106       .  S
Cu806       N808   2.060       .  S
Cu806       N814   2.062       .  S
N807        C811   1.344       .  A
N807        N808   1.318       .  A
N808        C809   1.344       .  A
C809        C810   1.384       .  A
C809        H812   1.082       .  S
C810        C811   1.391       .  A
C810        C974   1.473       .  S
C811        H813   1.083       .  S
N814        C818   1.344       .  A
N814        N815   1.324       .  A
N815        C816   1.349       .  A
C816        C817   1.389       .  A
C816        H819   1.082   1_556  S
C817        C818   1.379       .  A
C818        H820   1.082   1_545  S
N821        C826   1.358       .  A
N821        C825   1.356       .  A
N821        H853   1.041       .  S
N822        C829   1.357       .  A
N822        C830   1.356       .  A
N823        C828   1.361       .  A
N823        C827   1.361       .  A
N823        H854   1.035       .  S
N824        C831   1.352       .  A
N824        C832   1.353       .  A
C825        C833   1.392       .  A
C825        C841   1.425       .  A
C826        C842   1.409       .  A
C826        C834   1.379       .  A
C827        C835   1.380       .  A
C827        C844   1.425       .  A
C828        C843   1.431       .  A
C828        C836   1.387       .  A
C829        C837   1.383       .  A
C830        C844   1.433       .  A
C830        C838   1.389       .  A
C831        C839   1.383       .  A
C831        C842   1.412       .  A
C832        C840   1.388       .  A
C833        C834   1.370       .  A
C833        H845   1.082       .  S
C834        H846   1.082       .  S
C835        C836   1.367       .  A
C835        H847   1.068       .  S
C836        H848   1.081       .  S
C837        C838   1.376       .  A
C837        H849   1.081       .  S
C838        H850   1.078       .  S
C839        C840   1.374       .  A
C839        H851   1.082       .  S
C840        H852   1.080       .  S
C843        C858   1.503       .  S
N855        C859   1.353       .  A
N855        N856   1.322       .  A
N855       Cu863   2.111       .  S
N856        C857   1.341       .  A
N856       Cu862   2.061       .  S
C857        C858   1.384       .  A
C857        H860   1.082       .  S
C858        C859   1.396       .  A
C859        H861   1.082       .  S
Cu862       N865   2.062       .  S
Cu863       N873   2.112       .  S
Cu864       N866   2.056       .  S
Cu864       N872   2.058       .  S
N865        C869   1.344       .  A
N865        N866   1.317       .  A
N866        C867   1.342       .  A
C867        C868   1.382       .  A
C867        H870   1.083       .  S
C868        C869   1.386       .  A
C869        H871   1.082       .  S
N872        C876   1.344       .  A
N872        N873   1.324       .  A
N873        C874   1.349       .  A
C874        C875   1.390       .  A
C874        H877   1.082       .  S
C875        C876   1.379       .  A
C876        H878   1.082       .  S
N879        C884   1.356   1_556  A
N879        C883   1.356       .  A
N879        H911   1.039       .  S
N880        C887   1.356       .  A
N880        C888   1.355       .  A
N881        C886   1.357       .  A
N881        C885   1.350       .  A
N881        H912   1.036       .  S
N882        C889   1.352       .  A
N882        C890   1.352       .  A
C883        C891   1.391       .  A
C883        C899   1.425       .  A
C884        C892   1.383       .  A
C885        C893   1.388       .  A
C886        C901   1.420       .  A
C886        C894   1.384       .  A
C887        C899   1.417       .  A
C887        C895   1.383       .  A
C888        C902   1.427       .  A
C888        C896   1.390       .  A
C889        C897   1.385       .  A
C889        C900   1.413       .  A
C890        C898   1.384       .  A
C890        C901   1.420       .  A
C891        C892   1.372   1_556  A
C891        H903   1.080       .  S
C892        H904   1.082       .  S
C893        C894   1.378       .  A
C893        H905   1.081       .  S
C894        H906   1.078       .  S
C895        C896   1.370       .  A
C895        H907   1.080       .  S
C896        H908   1.081       .  S
C897        C898   1.371       .  A
C897        H909   1.082       .  S
C898        H910   1.080       .  S
C900        C940   1.489       .  S
C902        C916   1.491       .  S
N913        C917   1.351       .  A
N913        N914   1.323       .  A
N913       Cu921   2.101       .  S
N914        C915   1.342       .  A
N914       Cu920   2.064       .  S
C915        C916   1.382       .  A
C915        H918   1.082       .  S
C916        C917   1.390       .  A
C917        H919   1.082   1_556  S
Cu920       N923   2.063       .  S
Cu921       N931   2.102       .  S
Cu922       N924   2.062       .  S
Cu922       N930   2.066       .  S
N923        C927   1.345       .  A
N923        N924   1.318       .  A
N924        C925   1.342       .  A
C925        C926   1.388       .  A
C925        H928   1.082       .  S
C926        C927   1.387       .  A
C926        C971   1.476       .  S
C927        H929   1.081       .  S
N930        C934   1.345       .  A
N930        N931   1.324       .  A
N931        C932   1.349       .  A
C932        C933   1.389       .  A
C932        H935   1.082   1_556  S
C933        C934   1.381       .  A
C934        H936   1.082   1_545  S
N937        C941   1.352       .  A
N937        N938   1.323       .  A
N937       Cu945   2.102       .  S
N938        C939   1.342       .  A
N938       Cu944   2.065       .  S
C939        C940   1.381       .  A
C939        H942   1.082       .  S
C940        C941   1.389       .  A
C941        H943   1.082       .  S
Cu944       N947   2.060       .  S
Cu945       N955   2.102       .  S
Cu946       N948   2.066       .  S
Cu946       N954   2.070       .  S
N947        C951   1.342       .  A
N947        N948   1.319       .  A
N948        C949   1.342       .  A
C949        C950   1.381       .  A
C949        H952   1.080       .  S
C950        C951   1.385       .  A
C951        H953   1.080       .  S
N954        C958   1.347       .  A
N954        N955   1.324       .  A
N955        C956   1.347       .  A
C956        C957   1.387       .  A
C956        H959   1.082       .  S
C957        C958   1.382       .  A
C958        H960   1.082       .  S
O961        C971   1.278       .  A
O962        C972   1.278       .  A
O962       Cu969   1.996       .  S
O963        C973   1.276       .  A
O963       Cu969   1.994       .  S
O964        C974   1.274       .  A
O965        C974   1.282       .  A
O966        C973   1.279       .  A
O966       Cu970   2.018       .  S
O967        C972   1.275       .  A
O967       Cu970   2.004       .  S
O968        C971   1.278       .  A
Cu969      Cu970   2.374       .  S
C972        C988   1.462       .  S
C973       C1104   1.467       .  S
N975        C979   1.345       .  A
N975        N976   1.317       .  A
N975       Cu983   2.058       .  S
N976        C977   1.335       .  A
N976       Cu982   2.030       .  S
C977        C978   1.377       .  A
C977        H980   1.082       .  S
C978        C979   1.385       .  A
C978       C1043   1.476       .  S
C979        H981   1.082       .  S
Cu982       N985   2.029       .  S
Cu983       N993   2.061       .  S
Cu984       N986   2.086       .  S
Cu984       N992   2.090       .  S
N985        C989   1.335       .  A
N985        N986   1.319       .  A
N986        C987   1.350       .  A
C987        C988   1.390       .  A
C987        H990   1.082       .  S
C988        C989   1.373       .  A
C989        H991   1.082       .  S
N992        C996   1.346       .  A
N992        N993   1.325       .  A
N993        C994   1.341       .  A
C994        C995   1.374       .  A
C994        H997   1.079       .  S
C995        C996   1.384       .  A
C995       C1201   1.465   1_545  S
C996        H998   1.079   1_545  S
N999       C1003   1.350       .  A
N999       N1000   1.323       .  A
N999      Cu1007   2.096       .  S
N1000      C1001   1.340       .  A
N1000     Cu1006   2.061       .  S
C1001      C1002   1.377       .  A
C1001      H1004   1.082       .  S
C1002      C1003   1.387       .  A
C1002      C1045   1.479       .  S
C1003      H1005   1.081       .  S
Cu1006     N1009   2.060       .  S
Cu1007     N1017   2.096       .  S
Cu1008     N1010   2.053       .  S
Cu1008     N1016   2.053       .  S
N1009      C1013   1.343       .  A
N1009      N1010   1.318       .  A
N1010      C1011   1.343       .  A
C1011      C1012   1.382       .  A
C1011      H1014   1.082       .  S
C1012      C1013   1.384       .  A
C1012      C1152   1.464   1_556  S
C1013      H1015   1.082       .  S
N1016      C1020   1.341       .  A
N1016      N1017   1.323       .  A
N1017      C1018   1.348       .  A
C1018      C1019   1.382       .  A
C1018      H1021   1.077       .  S
C1019      C1020   1.376       .  A
C1019      C1259   1.467       .  S
C1020      H1022   1.082       .  S
N1023      C1028   1.356       .  A
N1023      C1027   1.354       .  A
N1023      H1055   1.035       .  S
N1024      C1031   1.350       .  A
N1024      C1032   1.352       .  A
N1025      C1030   1.357       .  A
N1025      C1029   1.358       .  A
N1025      H1056   1.042       .  S
N1026      C1033   1.352       .  A
N1026      C1034   1.349       .  A
C1027      C1035   1.387       .  A
C1027      C1043   1.416       .  A
C1028      C1044   1.419       .  A
C1028      C1036   1.388       .  A
C1029      C1037   1.385       .  A
C1029      C1046   1.420       .  A
C1030      C1045   1.414       .  A
C1030      C1038   1.384       .  A
C1031      C1043   1.418       .  A
C1031      C1039   1.390       .  A
C1032      C1046   1.406       .  A
C1032      C1040   1.383       .  A
C1033      C1041   1.386       .  A
C1033      C1044   1.412       .  A
C1034      C1042   1.387       .  A
C1034      C1045   1.410       .  A
C1035      C1036   1.366       .  A
C1035      H1047   1.082       .  S
C1036      H1048   1.081       .  S
C1037      C1038   1.373       .  A
C1037      H1049   1.076       .  S
C1038      H1050   1.082       .  S
C1039      C1040   1.364       .  A
C1039      H1051   1.081       .  S
C1040      H1052   1.081       .  S
C1041      C1042   1.370       .  A
C1041      H1053   1.082       .  S
C1042      H1054   1.082       .  S
N1057      C1062   1.363       .  A
N1057      C1061   1.357       .  A
N1057      H1089   1.041       .  S
N1058      C1065   1.356       .  A
N1058      C1066   1.355       .  A
N1059      C1064   1.356       .  A
N1059      C1063   1.354       .  A
N1059      H1090   1.037       .  S
N1060      C1067   1.352       .  A
N1060      C1068   1.351       .  A
C1061      C1069   1.380       .  A
C1061      C1077   1.415       .  A
C1062      C1078   1.428       .  A
C1062      C1070   1.383       .  A
C1063      C1071   1.384       .  A
C1063      C1080   1.413       .  A
C1064      C1079   1.418       .  A
C1064      C1072   1.388       .  A
C1065      C1077   1.417       .  A
C1065      C1073   1.385       .  A
C1066      C1080   1.422       .  A
C1066      C1074   1.386       .  A
C1067      C1075   1.387       .  A
C1067      C1078   1.421       .  A
C1068      C1076   1.383       .  A
C1068      C1079   1.415       .  A
C1069      C1070   1.364       .  A
C1069      H1081   1.082       .  S
C1070      H1082   1.063       .  S
C1071      C1072   1.366       .  A
C1071      H1083   1.080       .  S
C1072      H1084   1.082       .  S
C1073      C1074   1.373       .  A
C1073      H1085   1.081       .  S
C1074      H1086   1.082       .  S
C1075      C1076   1.369       .  A
C1075      H1087   1.081       .  S
C1076      H1088   1.076       .  S
C1077      C1094   1.496       .  S
C1079      C1118   1.487       .  S
N1091      C1095   1.350       .  A
N1091      N1092   1.321       .  A
N1091     Cu1099   2.092       .  S
N1092      C1093   1.344       .  A
N1092     Cu1098   2.074       .  S
C1093      C1094   1.387       .  A
C1093      H1096   1.082       .  S
C1094      C1095   1.389       .  A
C1095      H1097   1.079       .  S
Cu1098     N1101   2.073       .  S
Cu1099     N1109   2.093       .  S
Cu1100     N1102   2.068       .  S
Cu1100     N1108   2.069       .  S
N1101      C1105   1.342       .  A
N1101      N1102   1.322       .  A
N1102      C1103   1.346       .  A
C1103      C1104   1.383       .  A
C1103      H1106   1.082       .  S
C1104      C1105   1.382       .  A
C1105      H1107   1.082       .  S
N1108      C1112   1.347       .  A
N1108      N1109   1.324       .  A
N1109      C1110   1.344       .  A
C1110      C1111   1.382       .  A
C1110      H1113   1.077       .  S
C1111      C1112   1.382       .  A
C1111      C1485   1.473   1_545  S
C1112      H1114   1.082       .  S
N1115      C1119   1.349       .  A
N1115      N1116   1.320       .  A
N1115     Cu1123   2.077       .  S
N1116      C1117   1.339       .  A
N1116     Cu1122   2.052       .  S
C1117      C1118   1.381       .  A
C1117      H1120   1.082       .  S
C1118      C1119   1.389       .  A
C1119      H1121   1.082       .  S
Cu1122     N1125   2.051       .  S
Cu1123     N1133   2.078       .  S
Cu1124     N1126   2.083       .  S
Cu1124     N1132   2.085       .  S
N1125      C1129   1.341       .  A
N1125      N1126   1.321       .  A
N1126      C1127   1.347       .  A
C1127      C1128   1.387       .  A
C1127      H1130   1.082       .  S
C1128      C1129   1.378       .  A
C1128      C1149   1.466   1_556  S
C1129      H1131   1.082       .  S
N1132      C1136   1.347       .  A
N1132      N1133   1.325       .  A
N1133      C1134   1.344       .  A
C1134      C1135   1.376       .  A
C1134      H1137   1.078       .  S
C1135      C1136   1.384       .  A
C1135      C1461   1.468       .  S
C1136      H1138   1.081       .  S
O1139      C1149   1.279       .  A
O1139     Cu1147   2.011       .  S
O1140      C1150   1.278       .  A
O1140     Cu1147   2.009   1_455  S
O1141      C1151   1.277       .  A
O1141     Cu1147   1.995       .  S
O1142      C1152   1.276       .  A
O1142     Cu1147   1.998   1_455  S
O1143      C1152   1.278       .  A
O1143     Cu1148   2.010   1_455  S
O1144      C1151   1.278       .  A
O1144     Cu1148   2.004       .  S
O1145      C1150   1.277       .  A
O1145     Cu1148   1.999   1_455  S
O1146      C1149   1.275       .  A
O1146     Cu1148   2.002       .  S
Cu1147    Cu1148   2.375       .  S
N1153      C1157   1.366       .  A
N1153      C1154   1.377       .  A
N1153      C1334   1.457       .  S
C1154      C1155   1.388       .  A
C1154      C1161   1.507       .  S
C1155      C1156   1.364       .  A
C1155      H1158   1.067       .  S
C1156      C1157   1.376       .  A
C1156      H1159   1.082       .  S
C1157      C1226   1.513       .  S
N1160      C1164   1.362       .  A
N1160      C1161   1.378       .  A
N1160      C1367   1.461       .  S
C1161      C1162   1.396       .  A
C1162      C1163   1.364       .  A
C1162      H1165   1.075       .  S
C1163      C1164   1.369       .  A
C1163      H1166   1.082       .  S
C1164      C1510   1.492       .  S
N1167      C1171   1.357       .  A
N1167      C1168   1.368   1_455  A
N1167      C1228   1.445       .  S
C1168      C1169   1.390       .  A
C1168      C1175   1.509       .  S
C1169      C1170   1.377       .  A
C1169      H1172   1.076       .  S
C1170      C1171   1.378   1_655  A
C1170      H1173   1.082   1_556  S
C1171      C1332   1.494       .  S
N1174      C1178   1.356       .  A
N1174      C1175   1.369       .  A
N1174      C1365   1.448       .  S
C1175      C1176   1.395       .  A
C1176      C1177   1.365       .  A
C1176      H1179   1.071   1_655  S
C1177      C1178   1.369       .  A
C1177      H1180   1.082       .  S
C1178      C1512   1.479       .  S
N1181      C1185   1.348       .  A
N1181      N1182   1.322       .  A
N1181     Cu1189   2.077       .  S
N1182      C1183   1.340       .  A
N1182     Cu1188   2.067       .  S
C1183      C1184   1.382       .  A
C1183      H1186   1.082       .  S
C1184      C1185   1.387       .  A
C1184      C1227   1.488       .  S
C1185      H1187   1.082       .  S
Cu1188     N1191   2.065       .  S
Cu1189     N1199   2.077       .  S
Cu1190     N1192   2.069       .  S
Cu1190     N1198   2.069       .  S
N1191      C1195   1.344       .  A
N1191      N1192   1.320       .  A
N1192      C1193   1.345       .  A
C1193      C1194   1.384   1_556  A
C1193      H1196   1.082       .  S
C1194      C1195   1.383   1_554  A
C1194      C1533   1.468       .  S
C1195      H1197   1.082       .  S
N1198      C1202   1.343       .  A
N1198      N1199   1.323       .  A
N1199      C1200   1.345       .  A
C1200      C1201   1.378       .  A
C1200      H1203   1.077       .  S
C1201      C1202   1.380       .  A
C1202      H1204   1.082       .  S
N1205      C1210   1.363       .  A
N1205      C1209   1.355       .  A
N1205      H1237   1.041       .  S
N1206      C1213   1.356       .  A
N1206      C1214   1.355       .  A
N1207      C1212   1.356       .  A
N1207      C1211   1.354       .  A
N1207      H1238   1.037       .  S
N1208      C1215   1.351       .  A
N1208      C1216   1.350       .  A
C1209      C1217   1.382       .  A
C1209      C1225   1.417       .  A
C1210      C1226   1.427       .  A
C1210      C1218   1.385       .  A
C1211      C1219   1.383       .  A
C1211      C1228   1.414       .  A
C1212      C1227   1.416       .  A
C1212      C1220   1.386       .  A
C1213      C1225   1.419       .  A
C1213      C1221   1.386       .  A
C1214      C1228   1.421       .  A
C1214      C1222   1.385       .  A
C1215      C1223   1.385       .  A
C1215      C1226   1.417       .  A
C1216      C1224   1.383       .  A
C1216      C1227   1.413       .  A
C1217      C1218   1.370       .  A
C1217      H1229   1.082       .  S
C1218      H1230   1.069       .  S
C1219      C1220   1.366       .  A
C1219      H1231   1.079       .  S
C1220      H1232   1.082       .  S
C1221      C1222   1.374       .  A
C1221      H1233   1.081       .  S
C1222      H1234   1.082       .  S
C1223      C1224   1.368       .  A
C1223      H1235   1.080       .  S
C1224      H1236   1.075       .  S
C1225      C1242   1.496       .  S
N1239      C1243   1.350       .  A
N1239      N1240   1.322       .  A
N1239     Cu1247   2.090       .  S
N1240      C1241   1.343       .  A
N1240     Cu1246   2.077       .  S
C1241      C1242   1.386       .  A
C1241      H1244   1.082       .  S
C1242      C1243   1.389       .  A
C1243      H1245   1.078       .  S
Cu1246     N1249   2.076       .  S
Cu1247     N1257   2.091       .  S
Cu1248     N1250   2.057       .  S
Cu1248     N1256   2.056       .  S
N1249      C1253   1.343       .  A
N1249      N1250   1.321       .  A
N1250      C1251   1.345       .  A
C1251      C1252   1.382       .  A
C1251      H1254   1.082       .  S
C1252      C1253   1.384       .  A
C1252      C1439   1.466       .  S
C1253      H1255   1.082       .  S
N1256      C1260   1.345       .  A
N1256      N1257   1.323       .  A
N1257      C1258   1.343       .  A
C1258      C1259   1.380       .  A
C1258      H1261   1.074       .  S
C1259      C1260   1.379       .  A
C1260      H1262   1.082       .  S
N1263      C1267   1.350       .  A
N1263      N1264   1.323       .  A
N1263     Cu1271   2.098       .  S
N1264      C1265   1.342       .  A
N1264     Cu1270   2.062       .  S
C1265      C1266   1.380       .  A
C1265      H1268   1.082       .  S
C1266      C1267   1.389       .  A
C1266      C1331   1.489       .  S
C1267      H1269   1.082   1_556  S
Cu1270     N1273   2.057       .  S
Cu1271     N1281   2.098       .  S
Cu1272     N1274   2.067       .  S
Cu1272     N1280   2.071       .  S
N1273      C1277   1.343       .  A
N1273      N1274   1.318       .  A
N1274      C1275   1.341       .  A
C1275      C1276   1.389       .  A
C1275      H1278   1.083       .  S
C1276      C1277   1.386       .  A
C1276      C1437   1.475       .  S
C1277      H1279   1.080       .  S
N1280      C1284   1.345       .  A
N1280      N1281   1.324       .  A
N1281      C1282   1.349       .  A
C1282      C1283   1.389       .  A
C1282      H1285   1.082   1_556  S
C1283      C1284   1.381       .  A
C1284      H1286   1.082       .  S
N1287      C1291   1.352       .  A
N1287      N1288   1.324       .  A
N1287     Cu1295   2.106       .  S
N1288      C1289   1.343       .  A
N1288     Cu1294   2.065       .  S
C1289      C1290   1.382       .  A
C1289      H1292   1.082       .  S
C1290      C1291   1.390       .  A
C1290      C1333   1.491       .  S
C1291      H1293   1.082       .  S
Cu1294     N1297   2.059       .  S
Cu1295     N1305   2.106       .  S
Cu1296     N1298   2.067       .  S
Cu1296     N1304   2.069       .  S
N1297      C1301   1.343       .  A
N1297      N1298   1.319       .  A
N1298      C1299   1.341       .  A
C1299      C1300   1.381       .  A
C1299      H1302   1.080       .  S
C1300      C1301   1.383       .  A
C1300      C1535   1.465       .  S
C1301      H1303   1.079       .  S
N1304      C1308   1.346       .  A
N1304      N1305   1.323       .  A
N1305      C1306   1.350       .  A
C1306      C1307   1.390       .  A
C1306      H1309   1.082       .  S
C1307      C1308   1.382       .  A
C1308      H1310   1.082       .  S
N1311      C1316   1.360       .  A
N1311      C1315   1.357       .  A
N1311      H1343   1.033       .  S
N1312      C1319   1.350       .  A
N1312      C1320   1.353       .  A
N1313      C1318   1.356       .  A
N1313      C1317   1.355       .  A
N1313      H1344   1.042       .  S
N1314      C1321   1.350       .  A
N1314      C1322   1.352   1_556  A
C1315      C1323   1.389       .  A
C1315      C1331   1.429       .  A
C1316      C1332   1.424       .  A
C1316      C1324   1.386       .  A
C1317      C1325   1.385       .  A
C1317      C1334   1.420       .  A
C1318      C1333   1.414       .  A
C1318      C1326   1.385       .  A
C1319      C1327   1.390       .  A
C1320      C1334   1.410       .  A
C1320      C1328   1.380       .  A
C1321      C1329   1.391       .  A
C1321      C1332   1.423       .  A
C1322      C1330   1.382       .  A
C1323      C1324   1.375       .  A
C1323      H1335   1.082       .  S
C1324      H1336   1.081       .  S
C1325      C1326   1.372       .  A
C1325      H1337   1.079       .  S
C1326      H1338   1.083       .  S
C1327      C1328   1.375       .  A
C1327      H1339   1.081       .  S
C1328      H1340   1.080       .  S
C1329      C1330   1.371   1_556  A
C1329      H1341   1.081       .  S
C1330      H1342   1.082       .  S
N1345      C1350   1.356       .  A
N1345      C1349   1.358       .  A
N1345      H1377   1.042       .  S
N1346      C1353   1.353       .  A
N1346      C1354   1.353       .  A
N1347      C1352   1.361       .  A
N1347      C1351   1.360       .  A
N1347      H1378   1.034       .  S
N1348      C1355   1.356       .  A
N1348      C1356   1.356       .  A
C1349      C1357   1.380       .  A
C1349      C1365   1.410       .  A
C1350      C1366   1.422       .  A
C1350      C1358   1.390       .  A
C1351      C1359   1.387       .  A
C1351      C1368   1.431       .  A
C1352      C1367   1.424       .  A
C1352      C1360   1.380       .  A
C1353      C1365   1.412       .  A
C1353      C1361   1.382       .  A
C1354      C1362   1.388       .  A
C1355      C1363   1.384       .  A
C1356      C1364   1.389       .  A
C1356      C1367   1.432       .  A
C1357      C1358   1.369       .  A
C1357      H1369   1.082       .  S
C1358      H1370   1.082       .  S
C1359      C1360   1.368       .  A
C1359      H1371   1.081       .  S
C1360      H1372   1.069       .  S
C1361      C1362   1.374       .  A
C1361      H1373   1.082       .  S
C1362      H1374   1.080       .  S
C1363      C1364   1.376       .  A
C1363      H1375   1.081       .  S
C1364      H1376   1.077       .  S
C1366      C1406   1.506       .  S
C1368      C1382   1.500       .  S
N1379      C1383   1.352       .  A
N1379      N1380   1.322       .  A
N1379     Cu1387   2.101       .  S
N1380      C1381   1.341       .  A
N1380     Cu1386   2.065       .  S
C1381      C1382   1.385       .  A
C1381      H1384   1.082       .  S
C1382      C1383   1.393       .  A
C1383      H1385   1.082       .  S
Cu1386     N1389   2.066       .  S
Cu1387     N1397   2.102       .  S
Cu1388     N1390   2.057       .  S
Cu1388     N1396   2.061       .  S
N1389      C1393   1.343       .  A
N1389      N1390   1.318       .  A
N1390      C1391   1.342       .  A
C1391      C1392   1.384       .  A
C1391      H1394   1.082       .  S
C1392      C1393   1.387       .  A
C1392      C1534   1.469       .  S
C1393      H1395   1.083       .  S
N1396      C1400   1.343       .  A
N1396      N1397   1.324       .  A
N1397      C1398   1.349       .  A
C1398      C1399   1.388       .  A
C1398      H1401   1.082       .  S
C1399      C1400   1.379       .  A
C1400      H1402   1.082       .  S
N1403      C1407   1.354       .  A
N1403      N1404   1.323       .  A
N1403     Cu1411   2.109       .  S
N1404      C1405   1.342       .  A
N1404     Cu1410   2.083       .  S
C1405      C1406   1.389       .  A
C1405      H1408   1.083       .  S
C1406      C1407   1.394       .  A
C1407      H1409   1.082       .  S
Cu1410     N1413   2.081       .  S
Cu1411     N1421   2.109       .  S
Cu1412     N1414   2.061       .  S
Cu1412     N1420   2.061       .  S
N1413      C1417   1.344       .  A
N1413      N1414   1.319       .  A
N1414      C1415   1.345       .  A
C1415      C1416   1.386       .  A
C1415      H1418   1.082       .  S
C1416      C1417   1.390       .  A
C1416      C1440   1.475       .  S
C1417      H1419   1.082       .  S
N1420      C1424   1.343       .  A
N1420      N1421   1.324       .  A
N1421      C1422   1.351       .  A
C1422      C1423   1.391       .  A
C1422      H1425   1.082   1_556  S
C1423      C1424   1.379       .  A
C1424      H1426   1.082       .  S
O1427      C1437   1.278       .  A
O1428      C1438   1.281       .  A
O1428     Cu1435   2.010   1_655  S
O1429      C1439   1.275       .  A
O1429     Cu1435   1.992       .  S
O1430      C1440   1.275       .  A
O1431      C1440   1.281       .  A
O1432      C1439   1.280       .  A
O1432     Cu1436   2.020       .  S
O1433      C1438   1.274       .  A
O1433     Cu1436   2.004   1_655  S
O1434      C1437   1.277       .  A
Cu1435    Cu1436   2.374       .  S
C1438      C1454   1.467       .  S
N1441      C1445   1.343       .  A
N1441      N1442   1.316       .  A
N1441     Cu1449   2.054       .  S
N1442      C1443   1.336       .  A
N1442     Cu1448   2.024       .  S
C1443      C1444   1.377       .  A
C1443      H1446   1.082       .  S
C1444      C1445   1.385       .  A
C1444      C1509   1.473       .  S
C1445      H1447   1.082       .  S
Cu1448     N1451   2.022       .  S
Cu1449     N1459   2.058       .  S
Cu1450     N1452   2.103       .  S
Cu1450     N1458   2.106       .  S
N1451      C1455   1.335       .  A
N1451      N1452   1.319       .  A
N1452      C1453   1.351       .  A
C1453      C1454   1.394       .  A
C1453      H1456   1.082       .  S
C1454      C1455   1.372       .  A
C1455      H1457   1.082       .  S
N1458      C1462   1.346       .  A
N1458      N1459   1.326       .  A
N1459      C1460   1.343       .  A
C1460      C1461   1.375       .  A
C1460      H1463   1.082       .  S
C1461      C1462   1.386       .  A
C1462      H1464   1.078       .  S
N1465      C1469   1.349       .  A
N1465      N1466   1.323       .  A
N1465     Cu1473   2.094       .  S
N1466      C1467   1.342       .  A
N1466     Cu1472   2.067       .  S
C1467      C1468   1.379       .  A
C1467      H1470   1.082       .  S
C1468      C1469   1.385       .  A
C1468      C1511   1.479       .  S
C1469      H1471   1.081       .  S
Cu1472     N1475   2.065       .  S
Cu1473     N1483   2.094       .  S
Cu1474     N1476   2.063       .  S
Cu1474     N1482   2.064       .  S
N1475      C1479   1.343       .  A
N1475      N1476   1.320       .  A
N1476      C1477   1.344       .  A
C1477      C1478   1.382       .  A
C1477      H1480   1.082       .  S
C1478      C1479   1.383       .  A
C1478      C1536   1.464   1_556  S
C1479      H1481   1.082       .  S
N1482      C1486   1.343       .  A
N1482      N1483   1.323       .  A
N1483      C1484   1.349       .  A
C1484      C1485   1.384       .  A
C1484      H1487   1.079       .  S
C1485      C1486   1.380       .  A
C1486      H1488   1.082       .  S
N1489      C1494   1.352       .  A
N1489      C1493   1.352       .  A
N1489      H1521   1.036       .  S
N1490      C1497   1.348       .  A
N1490      C1498   1.348       .  A
N1491      C1496   1.350       .  A
N1491      C1495   1.355       .  A
N1491      H1522   1.041       .  S
N1492      C1499   1.357       .  A
N1492      C1500   1.355       .  A
C1493      C1501   1.392       .  A
C1493      C1509   1.422       .  A
C1494      C1510   1.408       .  A
C1494      C1502   1.382       .  A
C1495      C1503   1.387       .  A
C1495      C1512   1.414       .  A
C1496      C1511   1.411       .  A
C1496      C1504   1.387       .  A
C1497      C1509   1.411       .  A
C1497      C1505   1.387       .  A
C1498      C1512   1.411       .  A
C1498      C1506   1.386       .  A
C1499      C1507   1.384       .  A
C1499      C1510   1.422       .  A
C1500      C1508   1.383       .  A
C1500      C1511   1.415       .  A
C1501      C1502   1.367       .  A
C1501      H1513   1.079       .  S
C1502      H1514   1.078       .  S
C1503      C1504   1.374       .  A
C1503      H1515   1.082       .  S
C1504      H1516   1.082       .  S
C1505      C1506   1.367       .  A
C1505      H1517   1.082       .  S
C1506      H1518   1.079       .  S
C1507      C1508   1.374       .  A
C1507      H1519   1.075       .  S
C1508      H1520   1.082       .  S
O1523      C1533   1.278       .  A
O1523     Cu1531   2.008       .  S
O1524     Cu1531   2.002       .  S
O1525     Cu1531   1.989       .  S
O1526      C1536   1.276       .  A
O1526     Cu1531   1.995       .  S
O1527      C1536   1.278       .  A
O1527     Cu1532   2.008       .  S
O1528     Cu1532   2.007       .  S
O1529     Cu1532   2.010       .  S
O1530      C1533   1.277       .  A
O1530     Cu1532   2.009       .  S
Cu1531    Cu1532   2.375       .  S
