geometry optimzed in LAMMPS
_audit_creation_date              2020-11-30 
_audit_creation_method            'lammps2cif' 
_symmetry_space_group_name_H-M    'P1' 
_symmetry_Int_Tables_number       1 
_symmetry_cell_setting            triclinic 
loop_ 
_symmetry_equiv_pos_as_xyz 
  x,y,z 
_cell_length_a                    35.36460374 
_cell_length_b                    43.295677836559086 
_cell_length_c                    28.37809122436827 
_cell_angle_alpha                 89.74457153603517 
_cell_angle_beta                  89.53100768187198 
_cell_angle_gamma                 91.69260222255394 
loop_ 
_atom_site_label 
_atom_site_type_symbol 
_atom_site_fract_x 
_atom_site_fract_y 
_atom_site_fract_z 
_atom_site_charge 
C1          C  0.09547619  0.20938377  0.00223249    -0.02800
C2          C  0.44998490  0.27700454  0.00191278    -0.02800
Zn3        Zn  0.26854964  0.26379504  0.30480331     1.49700
Zn4        Zn  0.32629838  0.21934746  0.25501299     1.49400
Zn5        Zn  0.23735637  0.20247843  0.25289968     1.49100
Zn6        Zn  0.27085348  0.26063403  0.19441462     1.49500
O7          O  0.27572512  0.23631073  0.25159769    -1.84500
O8          O  0.31152342  0.26180284  0.34959663    -0.75100
O9          O  0.32320998  0.17288702  0.25418409    -0.74900
O10         O  0.20542206  0.20456589  0.31233759    -0.74400
O11         O  0.35195442  0.23065317  0.31586841    -0.75100
O12         O  0.22427126  0.24962674  0.34305736    -0.74700
O13         O  0.26153419  0.16110064  0.25261741    -0.75300
O14         O  0.23066467  0.24163551  0.15285232    -0.74700
O15         O  0.35909937  0.23480254  0.20071796    -0.75400
O16         O  0.20378201  0.20364845  0.19545677    -0.74800
O17         O  0.32048495  0.26422840  0.15960438    -0.75300
O18         O  0.25561693  0.30409049  0.20816216    -0.75200
O19         O  0.25990402  0.30795834  0.28581770    -0.75000
C20         C  0.34217505  0.24718771  0.35053876     0.76800
C21         C  0.29582651  0.15314097  0.25369528     0.77300
C22         C  0.20334429  0.22531569  0.34387891     0.76200
C23         C  0.20557518  0.22009978  0.15815416     0.76600
C24         C  0.35276546  0.25279075  0.16620083     0.77700
C25         C  0.25377645  0.31996177  0.24569940     0.76800
C26         C  0.34510486  0.02490397  0.24607996    -0.02800
C27         C  0.19801171  0.44740335  0.24385248    -0.02800
Zn28       Zn  0.03093777  0.01885349  0.05238325     1.49700
Zn29       Zn  0.47243374  0.47422956  0.49474241     1.49400
Zn30       Zn  0.03279545  0.01718936  0.43985679     1.49100
Zn31       Zn  0.06091177  0.46009237  0.49748581     1.49500
O32         O  0.02417928  0.49318830  0.49532292    -1.84500
O33         O  0.48373428  0.01761312  0.09117566    -0.75100
O34         O  0.44313426  0.48788594  0.43716892    -0.74900
O35         O  0.04280897  0.06231032  0.45710625    -0.74400
O36         O  0.44264130  0.48513495  0.05370415    -0.75100
O37         O  0.04160064  0.06318687  0.03411000    -0.74700
O38         O  0.48706522  0.01567651  0.39741799    -0.75300
O39         O  0.09571773  0.46257568  0.44064927    -0.74700
O40         O  0.47402868  0.42793893  0.49298583    -0.75400
O41         O  0.07652311  0.50273335  0.39942888    -0.74800
O42         O  0.03471375  0.41770093  0.49847987    -0.75300
O43         O  0.09228802  0.46158849  0.05722579    -0.75200
O44         O  0.07264436  0.50367327  0.09362235    -0.75000
C45         C  0.45151399  0.00382515  0.08839140     0.76800
C46         C  0.45366727  0.00401977  0.40086729     0.77300
C47         C  0.04573211  0.07654527  0.49627617     0.76200
C48         C  0.09872992  0.48032080  0.40472797     0.76600
C49         C  0.50027835  0.40854767  0.49571101     0.77700
C50         C  0.09395458  0.48054536  0.09134116     0.76800
C51         C  0.17518108  0.45412323  0.29087661    -0.06500
C52         C  0.16165791  0.48469214  0.29467481    -0.17600
C53         C  0.13915015  0.49454215  0.33212137     0.10700
C54         C  0.12745026  0.47338110  0.36757441    -0.06400
C55         C  0.14182193  0.44356660  0.36608181    -0.17600
C56         C  0.16506189  0.43344999  0.32923606     0.10800
S57         S  0.12782787  0.03446470  0.33472611    -0.32600
S58         S  0.17731061  0.39351208  0.33619879    -0.32600
H59         H  0.16152009  0.38308655  0.29388699     0.28800
H60         H  0.13373747  0.03760475  0.38348611     0.28800
H61         H  0.16943647  0.50163832  0.26783517     0.19400
H62         H  0.13352646  0.42713609  0.39345969     0.19400
C63         C  0.16973852  0.45693618  0.20397169    -0.06500
C64         C  0.17935522  0.48112265  0.17156996    -0.17600
C65         C  0.15567405  0.48923089  0.13442429     0.10700
C66         C  0.11995206  0.47449442  0.13027593    -0.06400
C67         C  0.10797286  0.45320467  0.16455215    -0.17600
C68         C  0.13147632  0.44478602  0.20174101     0.10800
S69         S  0.17139494  0.02269023  0.09858828    -0.32600
S70         S  0.11182234  0.41638739  0.24272758    -0.32600
H71         H  0.07348462  0.41953984  0.23135482     0.28800
H72         H  0.15022776  0.01430167  0.05875005     0.28800
H73         H  0.20553223  0.49430867  0.17420476     0.19400
H74         H  0.07998789  0.44256129  0.16146862     0.19400
C75         C  0.30782993  0.00397202  0.24629787    -0.06500
C76         C  0.29663193  0.48559038  0.20671495    -0.20200
C77         C  0.26313693  0.46738905  0.20518208     0.10700
C78         C  0.23609388  0.46808025  0.24283963    -0.06400
C79         C  0.24759643  0.48520856  0.28296252    -0.17600
C80         C  0.28197903  0.00324174  0.28524228     0.10800
S81         S  0.25658507  0.44370434  0.15353353    -0.32600
S82         S  0.29217596  0.02225425  0.34058829    -0.32600
H83         H  0.25494175  0.02230894  0.35845214     0.28800
H84         H  0.29478309  0.44317431  0.13931193     0.28800
H85         H  0.31345170  0.48655988  0.17498109     0.19400
H86         H  0.23139792  0.48377796  0.31519252     0.19400
C87         C  0.42628886  0.00901259  0.36202391    -0.06500
C88         C  0.39757078  0.48614112  0.35346972    -0.17600
C89         C  0.37198962  0.48866490  0.31577536     0.10700
C90         C  0.37283077  0.01679749  0.28745002    -0.06400
C91         C  0.40365547  0.03778244  0.29488170    -0.17600
C92         C  0.42886527  0.03503594  0.33205305     0.10800
S93         S  0.34412015  0.45409601  0.30193588    -0.32600
S94         S  0.46213944  0.06689656  0.34041583    -0.32600
H95         H  0.45646015  0.06814237  0.38951444     0.28800
H96         H  0.35237345  0.43653889  0.34216155     0.28800
H97         H  0.39716645  0.46534318  0.37474634     0.19400
H98         H  0.40696208  0.05806590  0.27303786     0.19400
C99         C  0.42363127  0.00864069  0.12647721    -0.06500
C100        C  0.41555916  0.03894307  0.13840240    -0.17600
C101        C  0.39086841  0.04596468  0.17560871     0.10700
C102        C  0.37142367  0.02125859  0.20130955    -0.06400
C103        C  0.38227262  0.99083049  0.19008445    -0.17600
C104        C  0.40643499  0.48319821  0.15299850     0.10800
S105        S  0.39067212  0.08661551  0.19111388    -0.32600
S106        S  0.41634118  0.44315773  0.14248852    -0.32600
H107        H  0.45424315  0.44823410  0.12845864     0.28800
H108        H  0.40629042  0.09907026  0.14917291     0.28800
H109        H  0.43008173  0.05741777  0.11902144     0.19400
H110        H  0.37086092  0.47062105  0.21113453     0.19400
C111        C  0.24251683  0.35257162  0.24243264    -0.06500
C112        C  0.21522878  0.36011544  0.20942203    -0.17600
C113        C  0.20095786  0.38986086  0.20566837     0.10700
C114        C  0.21198368  0.41328111  0.23952972    -0.06400
C115        C  0.24167498  0.40528101  0.27055674    -0.17600
C116        C  0.25714711  0.37594238  0.27182651     0.10800
S117        S  0.17062740  0.39318992  0.15498132    -0.32600
S118        S  0.29605024  0.37011114  0.31125240    -0.32600
H119        H  0.31522740  0.35004511  0.28105083     0.28800
H120        H  0.18773506  0.41978089  0.13537160     0.28800
H121        H  0.20490913  0.34231763  0.18558673     0.19400
H122        H  0.25246363  0.42199254  0.29570941     0.19400
C123        C  0.32914617  0.05829341  0.24943744    -0.06500
C124        C  0.33527458  0.07684108  0.28996157    -0.17600
C125        C  0.32329187  0.10714903  0.29291838     0.10700
C126        C  0.30421161  0.12016705  0.25492791    -0.06400
C127        C  0.29472163  0.10182847  0.21627305    -0.17600
C128        C  0.30649705  0.07120645  0.21289161     0.10800
S129        S  0.33252028  0.12782952  0.34688949    -0.32600
S130        S  0.29579987  0.05114418  0.15864235    -0.32600
H131        H  0.26744566  0.07070982  0.14279335     0.28800
H132        H  0.30086932  0.14669018  0.34465917     0.28800
H133        H  0.34872528  0.06792377  0.32090764     0.19400
H134        H  0.27967017  0.11218780  0.18738828     0.19400
C135        C  0.36663351  0.25024500  0.39278158    -0.06500
C136        C  0.35679102  0.27158331  0.42733185    -0.17600
C137        C  0.38087766  0.27929548  0.46449445     0.10700
C138        C  0.41787182  0.26636837  0.46677505    -0.06400
C139        C  0.42371251  0.24081930  0.43681372    -0.17600
C140        C  0.39917539  0.23286925  0.40018979     0.10800
S141        S  0.36086285  0.30634283  0.50538920    -0.32600
S142        S  0.41058581  0.19937204  0.36602881    -0.32600
H143        H  0.37329339  0.18719031  0.36735520     0.28800
H144        H  0.39034129  0.32844051  0.50401580     0.28800
H145        H  0.33031569  0.28343223  0.42473730     0.19400
H146        H  0.44726116  0.22601170  0.44163028     0.19400
C147        C  0.42973413  0.27047888  0.05066733    -0.06500
C148        C  0.41983672  0.29473618  0.08145830    -0.17600
C149        C  0.39600529  0.28960573  0.12052650     0.10700
C150        C  0.38293669  0.25940430  0.13140929    -0.06400
C151        C  0.39575229  0.23479543  0.10494021    -0.17600
C152        C  0.41859071  0.23962870  0.06496859     0.10800
S153        S  0.38165306  0.32282922  0.15363758    -0.32600
S154        S  0.43204113  0.20541830  0.03313628    -0.32600
H155        H  0.42627285  0.18492159  0.57223005     0.28800
H156        H  0.37543406  0.30710447  0.19658872     0.28800
H157        H  0.42739852  0.31849226  0.07343276     0.19400
H158        H  0.38575443  0.21162226  0.11407465     0.19400
C159        C  0.46241335  0.31221787  0.49561214    -0.06500
C160        C  0.48928020  0.32387509  0.02844713    -0.17600
C161        C  0.50209280  0.35469473  0.02920061     0.10700
C162        C  0.48963715  0.37535090  0.49571507    -0.06400
C163        C  0.46594591  0.36435836  0.46018894    -0.17600
C164        C  0.45310845  0.33344984  0.45811961     0.10800
S165        S  0.53272240  0.36654303  0.07677618    -0.32600
S166        S  0.42463588  0.32656486  0.40624038    -0.32600
H167        H  0.43781056  0.29793887  0.39329027     0.28800
H168        H  0.01647781  0.39554574  0.08417442     0.28800
H169        H  0.49836802  0.30946769  0.05704074     0.19400
H170        H  0.45764649  0.38036161  0.43287761     0.19400
C171        C  0.05870579  0.22826620  0.00551443    -0.06500
C172        C  0.03883172  0.23120506  0.46229701    -0.17600
C173        C  0.00836181  0.25090199  0.45922787     0.10700
C174        C  0.48825958  0.25886852  0.00096548    -0.06400
C175        C  0.00437471  0.25089320  0.04513692    -0.17600
C176        C  0.03941061  0.23659786  0.04797272     0.10800
S177        S  0.50075104  0.26904462  0.40384798    -0.32600
S178        S  0.05596463  0.22843692  0.10711061    -0.32600
H179        H  0.02807239  0.24323695  0.13355230     0.28800
H180        H  0.51081829  0.29888061  0.41956732     0.28800
H181        H  0.05057151  0.22300635  0.42972473     0.19400
H182        H  0.99099951  0.25672239  0.07798159     0.19400
C183        C  0.17652699  0.22149298  0.38320494    -0.06500
C184        C  0.15023210  0.24432476  0.39007464    -0.17600
C185        C  0.12437115  0.24358236  0.42776739     0.10700
C186        C  0.12375223  0.21735448  0.45994075    -0.06400
C187        C  0.15317582  0.19589929  0.45356856    -0.17600
C188        C  0.17884206  0.19749959  0.41608383     0.10800
S189        S  0.09728439  0.27871905  0.42714649    -0.32600
S190        S  0.21388316  0.16808915  0.41240241    -0.32600
H191        H  0.24285314  0.18710203  0.39268325     0.28800
H192        H  0.07854386  0.27926267  0.47007526     0.28800
H193        H  0.15025818  0.26349461  0.36529239     0.19400
H194        H  0.15523772  0.17630997  0.47703228     0.19400
C195        C  0.12200065  0.21231204  0.04673974    -0.06500
C196        C  0.13724397  0.18548690  0.06775983    -0.17600
C197        C  0.16335694  0.18700693  0.10470799     0.10700
C198        C  0.17677166  0.21591288  0.12090210    -0.06400
C199        C  0.16317525  0.24251521  0.10010894    -0.17600
C200        C  0.13663610  0.24138912  0.06382403     0.10800
S201        S  0.18122513  0.15130028  0.12680182    -0.32600
S202        S  0.12072550  0.27820926  0.04400396    -0.32600
H203        H  0.15303766  0.29626561  0.55547608     0.28800
H204        H  0.16601432  0.15558026  0.17217808     0.28800
H205        H  0.13046514  0.16270753  0.05445107     0.19400
H206        H  0.17313327  0.26468648  0.11335519     0.19400
C207        C  0.07935160  0.17425941  0.49594695    -0.06500
C208        C  0.06061466  0.16105035  0.03521220    -0.17600
C209        C  0.04741809  0.13033620  0.03533928     0.10700
C210        C  0.05387993  0.11062321  0.49647037    -0.06400
C211        C  0.06716313  0.12500318  0.45494702    -0.17600
C212        C  0.07807676  0.15650488  0.45324682     0.10800
S213        S  0.02263939  0.11699592  0.08775555    -0.32600
S214        S  0.08450947  0.17272502  0.39466183    -0.32600
H215        H  0.09446788  0.14527466  0.37195410     0.28800
H216        H  0.99364375  0.10142157  0.06280660     0.28800
H217        H  0.05775508  0.17358754  0.06751371     0.19400
H218        H  0.06813937  0.11155621  0.42293736     0.19400
C219        C  0.09577683  0.20849110  0.50160004    -0.02800
C220        C  0.44879461  0.27737691  0.50283974    -0.02800
Zn221      Zn  0.26880961  0.26402960  0.80557785     1.49700
Zn222      Zn  0.32554331  0.21904031  0.75520385     1.49400
Zn223      Zn  0.23662885  0.20292154  0.75292813     1.49100
Zn224      Zn  0.27056738  0.26133878  0.69543279     1.49500
O225        O  0.27527006  0.23656750  0.75217059    -1.84500
O226        O  0.31229794  0.26168108  0.84962491    -0.75100
O227        O  0.32202602  0.17266939  0.75361482    -0.74900
O228        O  0.20453283  0.20525370  0.81234469    -0.74400
O229        O  0.35173980  0.22975574  0.81583388    -0.75100
O230        O  0.22476023  0.24966151  0.84409739    -0.74700
O231        O  0.26030175  0.16116458  0.75239155    -0.75300
O232        O  0.23078286  0.24262857  0.65288864    -0.74700
O233        O  0.35834360  0.23459537  0.70130547    -0.75400
O234        O  0.20361915  0.20451557  0.69497231    -0.74800
O235        O  0.32029511  0.26515735  0.66133315    -0.75300
O236        O  0.25546090  0.30470412  0.70958837    -0.75200
O237        O  0.26007469  0.30845983  0.78716967    -0.75000
C238        C  0.34264058  0.24662655  0.85038399     0.76800
C239        C  0.29454686  0.15302843  0.75315104     0.77300
C240        C  0.20317128  0.22571692  0.84443942     0.76200
C241        C  0.20573842  0.22101167  0.65771365     0.76600
C242        C  0.35231873  0.25321299  0.66751192     0.77700
C243        C  0.25377386  0.32055638  0.74714066     0.76800
C244        C  0.34470595  0.02494893  0.74625637    -0.02800
C245        C  0.19727295  0.44777140  0.74386207    -0.02800
Zn246      Zn  0.03080492  0.01761715  0.55253762     1.49700
Zn247      Zn  0.47206926  0.47429330  0.99435471     1.49400
Zn248      Zn  0.03326164  0.01790931  0.93982482     1.49100
Zn249      Zn  0.06081765  0.45906870  0.99829026     1.49500
O250        O  0.02388740  0.49200116  0.99611869    -1.84500
O251        O  0.48283282  0.01736669  0.59112826    -0.75100
O252        O  0.44320203  0.48817841  0.93661149    -0.74900
O253        O  0.04351047  0.06315664  0.95611961    -0.74400
O254        O  0.44331207  0.48510975  0.55407874    -0.75100
O255        O  0.04259278  0.06190749  0.53512257    -0.74700
O256        O  0.48753739  0.01644753  0.89688220    -0.75300
O257        O  0.09609603  0.46181431  0.94186019    -0.74700
O258        O  0.47361105  0.42793221  0.99215951    -0.75400
O259        O  0.07670937  0.50199333  0.90090040    -0.74800
O260        O  0.03457945  0.41686361  0.99838277    -0.75300
O261        O  0.09280346  0.46297692  0.55601404    -0.75200
O262        O  0.07304608  0.50493176  0.59268454    -0.75000
C263        C  0.45082169  0.00324135  0.58837073     0.76800
C264        C  0.45396434  0.00517267  0.90065800     0.77300
C265        C  0.04536886  0.07763665  0.99515277     0.76200
C266        C  0.09907864  0.47971958  0.90611732     0.76600
C267        C  0.49991852  0.40858851  0.99506254     0.77700
C268        C  0.09444871  0.48186293  0.59022285     0.76800
C269        C  0.17442629  0.45415394  0.79096002    -0.06500
C270        C  0.16128061  0.48477048  0.79555195    -0.17600
C271        C  0.13926153  0.49444250  0.83358468     0.10700
C272        C  0.12770634  0.47304762  0.86879181    -0.06400
C273        C  0.14150434  0.44310497  0.86634839    -0.17600
C274        C  0.16395135  0.43304756  0.82874249     0.10800
S275        S  0.12871878  0.03412204  0.83605519    -0.32600
S276        S  0.17398984  0.39246321  0.83387710    -0.32600
H277        H  0.15941827  0.38332575  0.79029115     0.28800
H278        H  0.13452536  0.03683436  0.88489864     0.28800
H279        H  0.16902980  0.50188909  0.76895347     0.19400
H280        H  0.13303077  0.42646960  0.89334715     0.19400
C281        C  0.16918860  0.45760208  0.70377782    -0.06500
C282        C  0.17923330  0.48179938  0.67148621    -0.17600
C283        C  0.15604469  0.48989958  0.63382589     0.10700
C284        C  0.12018005  0.47553900  0.62935320    -0.06400
C285        C  0.10767571  0.45440422  0.66355758    -0.17600
C286        C  0.13081898  0.44573094  0.70099683     0.10800
S287        S  0.17373340  0.01924166  0.59535154    -0.32600
S288        S  0.11032865  0.41769374  0.74191059    -0.32600
H289        H  0.07236337  0.41952064  0.72805203     0.28800
H290        H  0.14346968  0.01970679  0.56377990     0.28800
H291        H  0.20541656  0.49490189  0.67443527     0.19400
H292        H  0.07954881  0.44412883  0.66019830     0.19400
C293        C  0.30755580  0.00383046  0.74680389    -0.06500
C294        C  0.29614000  0.48539872  0.70666457    -0.20200
C295        C  0.26247511  0.46744749  0.70516807     0.10700
C296        C  0.23549854  0.46827646  0.74291939    -0.06400
C297        C  0.24728087  0.48520311  0.78310873    -0.17600
C298        C  0.28161122  0.00322506  0.78565905     0.10800
S299        S  0.25552772  0.44400765  0.65330491    -0.32600
S300        S  0.29157231  0.02267706  0.84070557    -0.32600
H301        H  0.25418819  0.02301127  0.85802930     0.28800
H302        H  0.29350425  0.44380857  0.63812205     0.28800
H303        H  0.31282168  0.48639618  0.67481470     0.19400
H304        H  0.23103052  0.48379683  0.81530533     0.19400
C305        C  0.42643438  0.01013692  0.86200101    -0.06500
C306        C  0.39795450  0.48616558  0.85288510    -0.17600
C307        C  0.37236163  0.48850335  0.81517665     0.10700
C308        C  0.37265596  0.01728429  0.78760200    -0.06400
C309        C  0.40357396  0.03833499  0.79437494    -0.17600
C310        C  0.42892075  0.03592435  0.83154421     0.10800
S311        S  0.34476175  0.45380828  0.80130193    -0.32600
S312        S  0.46233102  0.06777463  0.83918425    -0.32600
H313        H  0.45730067  0.06912225  0.88837808     0.28800
H314        H  0.35317941  0.43629920  0.84151840     0.28800
H315        H  0.39763420  0.46540851  0.87427019     0.19400
H316        H  0.40682368  0.05838000  0.77197948     0.19400
C317        C  0.42271344  0.00810714  0.62623515    -0.06500
C318        C  0.41416750  0.03844030  0.63746071    -0.17600
C319        C  0.38962326  0.04558660  0.67473145     0.10700
C320        C  0.37089268  0.02103541  0.70142344    -0.06400
C321        C  0.38210644  0.99059333  0.69083230    -0.17600
C322        C  0.40615253  0.48282949  0.65242291     0.10800
S323        S  0.38924446  0.08633660  0.68914040    -0.32600
S324        S  0.41489350  0.44271455  0.64077858    -0.32600
H325        H  0.45301963  0.44717923  0.62734901     0.28800
H326        H  0.39733415  0.09781011  0.64356808     0.28800
H327        H  0.42833376  0.05694032  0.61771352     0.19400
H328        H  0.36985461  0.47019412  0.70979127     0.19400
C329        C  0.24235289  0.35317827  0.74380808    -0.06500
C330        C  0.21581061  0.36072053  0.70975256    -0.17600
C331        C  0.20102402  0.39029482  0.70591499     0.10700
C332        C  0.21139248  0.41373261  0.73992277    -0.06400
C333        C  0.24037541  0.40581500  0.77205116    -0.17600
C334        C  0.25587597  0.37651501  0.77407250     0.10800
S335        S  0.17013579  0.39330644  0.65573818    -0.32600
S336        S  0.29313239  0.37071893  0.81591351    -0.32600
H337        H  0.31385879  0.35117060  0.78656886     0.28800
H338        H  0.18672906  0.41996005  0.63567910     0.28800
H339        H  0.20614602  0.34296140  0.68546729     0.19400
H340        H  0.25035580  0.42252508  0.79769386     0.19400
C341        C  0.32856080  0.05830133  0.74928853    -0.06500
C342        C  0.33484039  0.07708497  0.78951734    -0.17600
C343        C  0.32258918  0.10732025  0.79228067     0.10700
C344        C  0.30291114  0.12001708  0.75452818    -0.06400
C345        C  0.29328801  0.10143342  0.71616048    -0.17600
C346        C  0.30547388  0.07089268  0.71290768     0.10800
S347        S  0.33237831  0.12843591  0.84570195    -0.32600
S348        S  0.29477025  0.05059678  0.65887481    -0.32600
H349        H  0.26483054  0.06904751  0.64450473     0.28800
H350        H  0.29984348  0.14633975  0.84442131     0.28800
H351        H  0.34859109  0.06841758  0.82040154     0.19400
H352        H  0.27793405  0.11153096  0.68735315     0.19400
C353        C  0.36751651  0.24960912  0.89227186    -0.06500
C354        C  0.35756523  0.27057244  0.92728223    -0.17600
C355        C  0.38184271  0.27845768  0.96412229     0.10700
C356        C  0.41904285  0.26586623  0.96594383    -0.06400
C357        C  0.42510615  0.24056901  0.93555011    -0.17600
C358        C  0.40056031  0.23268928  0.89887225     0.10800
S359        S  0.36167298  0.30533215  0.00516076    -0.32600
S360        S  0.41285587  0.20003056  0.86334898    -0.32600
H361        H  0.37616348  0.18667242  0.86557527     0.28800
H362        H  0.39085481  0.32768382  0.00354749     0.28800
H363        H  0.33082040  0.28207093  0.92526235     0.19400
H364        H  0.44886678  0.22594169  0.93999369     0.19400
C365        C  0.42843324  0.27092631  0.55149897    -0.06500
C366        C  0.41874923  0.29519373  0.58240486    -0.17600
C367        C  0.39555553  0.28999960  0.62202005     0.10700
C368        C  0.38242825  0.25981717  0.63280204    -0.06400
C369        C  0.39481490  0.23523394  0.60601493    -0.17600
C370        C  0.41735925  0.24008261  0.56588332     0.10800
S371        S  0.38238090  0.32305333  0.65632927    -0.32600
S372        S  0.43052144  0.20576828  0.53422060    -0.32600
H373        H  0.42329624  0.18361035  0.06878031     0.28800
H374        H  0.37651016  0.30691604  0.69900733     0.28800
H375        H  0.42624166  0.31895057  0.57434679     0.19400
H376        H  0.38474511  0.21204909  0.61500111     0.19400
C377        C  0.46325296  0.31193085  0.99460446    -0.06500
C378        C  0.48823024  0.32405569  0.52980695    -0.17600
C379        C  0.50136632  0.35479704  0.53058041     0.10700
C380        C  0.48949977  0.37532964  0.99494250    -0.06400
C381        C  0.46552687  0.36425830  0.95973947    -0.17600
C382        C  0.45332125  0.33318923  0.95742217     0.10800
S383        S  0.53116852  0.36668820  0.57893816    -0.32600
S384        S  0.42488732  0.32604005  0.90559449    -0.32600
H385        H  0.43891502  0.29774302  0.89239988     0.28800
H386        H  0.01596550  0.39624318  0.58454729     0.28800
H387        H  0.49681049  0.30965078  0.55867193     0.19400
H388        H  0.45666068  0.38027725  0.93275509     0.19400
C389        C  0.05880364  0.22713975  0.50451977    -0.06500
C390        C  0.03932565  0.23340714  0.96316540    -0.17600
C391        C  0.00867258  0.25290335  0.96081658     0.10700
C392        C  0.48691957  0.25905828  0.50201450    -0.06400
C393        C  0.00558655  0.25163327  0.54370887    -0.17600
C394        C  0.04031665  0.23690526  0.54664480     0.10800
S395        S  0.50210261  0.26905939  0.90281293    -0.32600
S396        S  0.05656090  0.22926013  0.60585783    -0.32600
H397        H  0.04008384  0.25486735  0.62741446     0.28800
H398        H  0.51152292  0.29895953  0.91879125     0.28800
H399        H  0.05151896  0.22616021  0.93028564     0.19400
H400        H  0.99255604  0.25789321  0.57666186     0.19400
C401        C  0.17638181  0.22204190  0.88385883    -0.06500
C402        C  0.15089742  0.24539105  0.89146545    -0.17600
C403        C  0.12514690  0.24483358  0.92929008     0.10700
C404        C  0.12381335  0.21830707  0.96091146    -0.06400
C405        C  0.15269777  0.19642353  0.95406429    -0.17600
C406        C  0.17810688  0.19772473  0.91627480     0.10800
S407        S  0.09926223  0.28059449  0.92960140    -0.32600
S408        S  0.21185871  0.16739419  0.91139784    -0.32600
H409        H  0.24141209  0.18585009  0.89181916     0.28800
H410        H  0.07944213  0.28065558  0.97175735     0.28800
H411        H  0.15144821  0.26481180  0.86710181     0.19400
H412        H  0.15433934  0.17662161  0.97720872     0.19400
C413        C  0.12255081  0.21199259  0.54586077    -0.06500
C414        C  0.13805435  0.18545197  0.56740807    -0.17600
C415        C  0.16425853  0.18743738  0.60420788     0.10700
C416        C  0.17747119  0.21653130  0.61986077    -0.06400
C417        C  0.16399452  0.24287335  0.59814996    -0.17600
C418        C  0.13743746  0.24126297  0.56187033     0.10800
S419        S  0.18251820  0.15203290  0.62689391    -0.32600
S420        S  0.12198104  0.27784396  0.54060441    -0.32600
H421        H  0.14923272  0.29730355  0.06375360     0.28800
H422        H  0.16581834  0.15595252  0.67154829     0.28800
H423        H  0.13145679  0.16251701  0.55460893     0.19400
H424        H  0.17388831  0.26524396  0.61073012     0.19400
C425        C  0.07865868  0.17532328  0.99574449    -0.06500
C426        C  0.06171865  0.16015814  0.53586627    -0.17600
C427        C  0.04896126  0.12928354  0.53666007     0.10700
C428        C  0.05299819  0.11178267  0.99522491    -0.06400
C429        C  0.06659974  0.12633549  0.95395570    -0.17600
C430        C  0.07725618  0.15794430  0.95266176     0.10800
S431        S  0.02560425  0.11586142  0.59000215    -0.32600
S432        S  0.08362860  0.17493864  0.89447975    -0.32600
H433        H  0.08385494  0.14752667  0.86811012     0.28800
H434        H  0.99595152  0.10030864  0.56622448     0.28800
H435        H  0.05893511  0.17301637  0.56796519     0.19400
H436        H  0.06815544  0.11288327  0.92201556     0.19400
C437        C  0.09534005  0.70847377  0.00077930    -0.02800
C438        C  0.44885361  0.77689295  0.00173712    -0.02800
Zn439      Zn  0.26893733  0.76366021  0.30441293     1.49700
Zn440      Zn  0.32527362  0.71813064  0.25458980     1.49400
Zn441      Zn  0.23609293  0.70222509  0.25311345     1.49100
Zn442      Zn  0.26990918  0.76018475  0.19440842     1.49500
O443        O  0.27497368  0.73575070  0.25143318    -1.84500
O444        O  0.31245490  0.76161804  0.34829677    -0.75100
O445        O  0.32138169  0.67173860  0.25295992    -0.74900
O446        O  0.20483360  0.70503923  0.31314413    -0.74400
O447        O  0.35150838  0.72893616  0.31552898    -0.75100
O448        O  0.22516204  0.74982137  0.34359055    -0.74700
O449        O  0.25959337  0.66035216  0.25234516    -0.75300
O450        O  0.22959868  0.74120154  0.15281914    -0.74700
O451        O  0.35806601  0.73346948  0.20025192    -0.75400
O452        O  0.20215289  0.70368769  0.19581671    -0.74800
O453        O  0.31957626  0.76336921  0.15970204    -0.75300
O454        O  0.25495060  0.80390289  0.20814030    -0.75200
O455        O  0.26023856  0.80793545  0.28561684    -0.75000
C456        C  0.34255931  0.74630076  0.34961964     0.76800
C457        C  0.29382985  0.65215467  0.25268612     0.77300
C458        C  0.20366205  0.72584822  0.34473835     0.76200
C459        C  0.20421204  0.71989788  0.15825920     0.76600
C460        C  0.35175621  0.75166532  0.16597840     0.77700
C461        C  0.25365021  0.81991682  0.24561011     0.76800
C462        C  0.34470449  0.52426278  0.24609806    -0.02800
C463        C  0.19844197  0.94779785  0.24409086    -0.02800
Zn464      Zn  0.03030917  0.51798540  0.05197800     1.49700
Zn465      Zn  0.47234015  0.97440810  0.49494980     1.49400
Zn466      Zn  0.03264670  0.51851253  0.43837017     1.49100
Zn467      Zn  0.06115803  0.95867202  0.49845616     1.49500
O468        O  0.02419586  0.99171082  0.49655880    -1.84500
O469        O  0.48280701  0.51720604  0.09040678    -0.75100
O470        O  0.44352984  0.98793464  0.43681184    -0.74900
O471        O  0.04250200  0.56389431  0.45470248    -0.74400
O472        O  0.44284678  0.98657163  0.05360712    -0.75100
O473        O  0.04130612  0.56251361  0.03406094    -0.74700
O474        O  0.48634987  0.51572643  0.39733248    -0.75300
O475        O  0.09625252  0.96142775  0.44168072    -0.74700
O476        O  0.47396532  0.92809593  0.49320774    -0.75400
O477        O  0.07695256  0.00175860  0.40098753    -0.74800
O478        O  0.03465620  0.91640000  0.49877677    -0.75300
O479        O  0.09216634  0.96208719  0.05804455    -0.75200
O480        O  0.07381266  0.00496167  0.09341472    -0.75000
C481        C  0.45096174  0.50277939  0.08817151     0.76800
C482        C  0.45300668  0.50403707  0.40118305     0.77300
C483        C  0.04521347  0.57819304  0.49384007     0.76200
C484        C  0.09930349  0.97941943  0.40602830     0.76600
C485        C  0.50022544  0.90871062  0.49609284     0.77700
C486        C  0.09459345  0.98149780  0.09155662     0.76800
C487        C  0.17566883  0.95417055  0.29136097    -0.06500
C488        C  0.16207004  0.98468611  0.29575577    -0.17600
C489        C  0.13959973  0.99423676  0.33347581     0.10700
C490        C  0.12816410  0.97286015  0.36877672    -0.06400
C491        C  0.14274119  0.94313342  0.36680092    -0.17600
C492        C  0.16569621  0.93324082  0.32948971     0.10800
S493        S  0.12778411  0.53485895  0.33292693    -0.32600
S494        S  0.17768222  0.89318243  0.33564008    -0.32600
H495        H  0.16197512  0.88313488  0.29309472     0.28800
H496        H  0.13363689  0.53816361  0.38167339     0.28800
H497        H  0.16969248  0.00182434  0.26916291     0.19400
H498        H  0.13467509  0.92654859  0.39405104     0.19400
C499        C  0.17009364  0.95764277  0.20443989    -0.06500
C500        C  0.17920977  0.98268578  0.17331710    -0.17600
C501        C  0.15544807  0.99120132  0.13643133     0.10700
C502        C  0.12052198  0.97542139  0.13061817    -0.06400
C503        C  0.10893360  0.95325956  0.16380225    -0.17600
C504        C  0.13214779  0.94497307  0.20136869     0.10800
S505        S  0.17288037  0.51881220  0.09390364    -0.32600
S506        S  0.11258565  0.91636136  0.24208770    -0.32600
H507        H  0.07497862  0.91594785  0.22632313     0.28800
H508        H  0.15051631  0.51019968  0.05519290     0.28800
H509        H  0.20495485  0.99635592  0.17701669     0.19400
H510        H  0.08132224  0.94212079  0.15981537     0.19400
C511        C  0.30750331  0.50331063  0.24629039    -0.06500
C512        C  0.29679868  0.98639861  0.20662472    -0.20200
C513        C  0.26324492  0.96823355  0.20510157     0.10700
C514        C  0.23649897  0.96853903  0.24311079    -0.06400
C515        C  0.24814419  0.98552589  0.28331090    -0.17600
C516        C  0.28148541  0.50276745  0.28504850     0.10800
S517        S  0.25616020  0.94513865  0.15296047    -0.32600
S518        S  0.29138936  0.52170988  0.34049767    -0.32600
H519        H  0.25361567  0.52412579  0.35573160     0.28800
H520        H  0.29416647  0.94488070  0.13790432     0.28800
H521        H  0.31351855  0.98752839  0.17481880     0.19400
H522        H  0.23203599  0.98390171  0.31557120     0.19400
C523        C  0.42541519  0.50903964  0.36266982    -0.06500
C524        C  0.39829548  0.98622707  0.35277926    -0.17600
C525        C  0.37272685  0.98887133  0.31507584     0.10700
C526        C  0.37214888  0.51647353  0.28786249    -0.06400
C527        C  0.40268623  0.53768771  0.29551362    -0.17600
C528        C  0.42783845  0.53508310  0.33274320     0.10800
S529        S  0.34447168  0.95448797  0.30131288    -0.32600
S530        S  0.46107322  0.56700564  0.34094329    -0.32600
H531        H  0.45578627  0.56813375  0.39011201     0.28800
H532        H  0.36100020  0.93388974  0.33297924     0.28800
H533        H  0.39746800  0.96555068  0.37433142     0.19400
H534        H  0.40588808  0.55796951  0.27368826     0.19400
C535        C  0.42311525  0.50752859  0.12641197    -0.06500
C536        C  0.41540564  0.53785495  0.13866850    -0.17600
C537        C  0.39078328  0.54493447  0.17586071     0.10700
C538        C  0.37129585  0.52034347  0.20165172    -0.06400
C539        C  0.38199047  0.48986823  0.19043468    -0.17600
C540        C  0.40714388  0.98427956  0.15309178     0.10800
S541        S  0.39082573  0.58558563  0.19108078    -0.32600
S542        S  0.41801719  0.94433876  0.14333607    -0.32600
H543        H  0.45584850  0.94983771  0.12929058     0.28800
H544        H  0.40047998  0.59748423  0.14620615     0.28800
H545        H  0.43009805  0.55638948  0.11955773     0.19400
H546        H  0.37120142  0.97154741  0.21071331     0.19400
C547        C  0.24254700  0.85265949  0.24241022    -0.06500
C548        C  0.21540941  0.86039977  0.20929571    -0.17600
C549        C  0.20144372  0.89027166  0.20537332     0.10700
C550        C  0.21250094  0.91366367  0.23930592    -0.06400
C551        C  0.24210838  0.90550459  0.27035002    -0.17600
C552        C  0.25728450  0.87602728  0.27180529     0.10800
S553        S  0.17148621  0.89370381  0.15433756    -0.32600
S554        S  0.29587770  0.87001825  0.31161750    -0.32600
H555        H  0.31519298  0.85002353  0.28145091     0.28800
H556        H  0.18757936  0.92099159  0.13579446     0.28800
H557        H  0.20499550  0.84264723  0.18542435     0.19400
H558        H  0.25295899  0.92217310  0.29553983     0.19400
C559        C  0.32851451  0.55762831  0.24876749    -0.06500
C560        C  0.33375855  0.57622329  0.28940996    -0.17600
C561        C  0.32090782  0.60627413  0.29227181     0.10700
C562        C  0.30216633  0.61913836  0.25392057    -0.06400
C563        C  0.29385135  0.60083775  0.21480025    -0.17600
C564        C  0.30632202  0.57035779  0.21159146     0.10800
S565        S  0.32867110  0.62697376  0.34656722    -0.32600
S566        S  0.29692713  0.55007317  0.15710490    -0.32600
H567        H  0.27333696  0.57179559  0.13633718     0.28800
H568        H  0.29592865  0.64457429  0.34403238     0.28800
H569        H  0.34706367  0.56750137  0.32056961     0.19400
H570        H  0.27907068  0.61111271  0.18566518     0.19400
C571        C  0.36730813  0.74962583  0.39162612    -0.06500
C572        C  0.35773417  0.77132984  0.42578078    -0.17600
C573        C  0.38187731  0.77921072  0.46280659     0.10700
C574        C  0.41880728  0.76619531  0.46527856    -0.06400
C575        C  0.42454023  0.74048069  0.43556710    -0.17600
C576        C  0.39981113  0.73224329  0.39922797     0.10800
S577        S  0.36181641  0.80637461  0.50350290    -0.32600
S578        S  0.41089257  0.69837518  0.36574761    -0.32600
H579        H  0.37365985  0.68607221  0.36810452     0.28800
H580        H  0.39121919  0.82851814  0.50229157     0.28800
H581        H  0.33130093  0.78323111  0.42311253     0.19400
H582        H  0.44810387  0.72570442  0.44046388     0.19400
C583        C  0.42838630  0.77004636  0.05031967    -0.06500
C584        C  0.41815688  0.79413900  0.08123483    -0.17600
C585        C  0.39462540  0.78871194  0.12046989     0.10700
C586        C  0.38186160  0.75842533  0.13117508    -0.06400
C587        C  0.39478537  0.73397779  0.10445591    -0.17600
C588        C  0.41739011  0.73906847  0.06430182     0.10800
S589        S  0.38048069  0.82165434  0.15438226    -0.32600
S590        S  0.43144529  0.70505224  0.03230672    -0.32600
H591        H  0.42374252  0.68350026  0.56831541     0.28800
H592        H  0.37504749  0.80562672  0.19723138     0.28800
H593        H  0.42538057  0.81796934  0.07336113     0.19400
H594        H  0.38533167  0.71073780  0.11393554     0.19400
C595        C  0.46312488  0.81214919  0.49456225    -0.06500
C596        C  0.48720499  0.82408001  0.02898839    -0.17600
C597        C  0.49947967  0.85503092  0.03013635     0.10700
C598        C  0.48965916  0.87549077  0.49566428    -0.06400
C599        C  0.46631949  0.86450531  0.45975400    -0.17600
C600        C  0.45389701  0.83348736  0.45715825     0.10800
S601        S  0.52899187  0.86717602  0.07862334    -0.32600
S602        S  0.42598994  0.82658334  0.40479858    -0.32600
H603        H  0.43897632  0.79781941  0.39232675     0.28800
H604        H  0.01319583  0.89623974  0.08542826     0.28800
H605        H  0.49620293  0.80970145  0.05763161     0.19400
H606        H  0.45804580  0.88057543  0.43252562     0.19400
C607        C  0.05867497  0.72750279  0.00414076    -0.06500
C608        C  0.03915537  0.73340949  0.46284623    -0.17600
C609        C  0.00808883  0.75250025  0.46055590     0.10700
C610        C  0.48731492  0.75900801  0.00100882    -0.06400
C611        C  0.00562943  0.75175887  0.04411183    -0.17600
C612        C  0.04051772  0.73726140  0.04658056     0.10800
S613        S  0.50152430  0.76829453  0.40208136    -0.32600
S614        S  0.05707068  0.72947125  0.10569503    -0.32600
H615        H  0.03839781  0.75340933  0.12881197     0.28800
H616        H  0.51043288  0.79841606  0.41746120     0.28800
H617        H  0.05136334  0.72620016  0.42995311     0.19400
H618        H  0.99277569  0.75790303  0.07720473     0.19400
C619        C  0.17712901  0.72255743  0.38442874    -0.06500
C620        C  0.15135892  0.74578027  0.39147352    -0.17600
C621        C  0.12531253  0.74518881  0.42898200     0.10700
C622        C  0.12411943  0.71881760  0.46088382    -0.06400
C623        C  0.15330119  0.69712824  0.45463364    -0.17600
C624        C  0.17904505  0.69850947  0.41725012     0.10800
S625        S  0.09853647  0.78049327  0.42835043    -0.32600
S626        S  0.21354526  0.66868457  0.41345111    -0.32600
H627        H  0.24282189  0.68745319  0.39388898     0.28800
H628        H  0.07941370  0.78086619  0.47104307     0.28800
H629        H  0.15176998  0.76502809  0.36679316     0.19400
H630        H  0.15499258  0.67743608  0.47799054     0.19400
C631        C  0.12180981  0.71152631  0.04531482    -0.06500
C632        C  0.13559844  0.68482500  0.06823981    -0.17600
C633        C  0.16122468  0.68659023  0.10575721     0.10700
C634        C  0.17558930  0.71556297  0.12067673    -0.06400
C635        C  0.16352809  0.74197419  0.09775568    -0.17600
C636        C  0.13736543  0.74060194  0.06108611     0.10800
S637        S  0.17753301  0.65093476  0.12996109    -0.32600
S638        S  0.12490332  0.77724135  0.03694516    -0.32600
H639        H  0.15525446  0.79582058  0.55406411     0.28800
H640        H  0.16186627  0.65649550  0.17473378     0.28800
H641        H  0.12814092  0.66191344  0.05600499     0.19400
H642        H  0.17498379  0.76425101  0.10877503     0.19400
C643        C  0.07900360  0.67575973  0.49524120    -0.06500
C644        C  0.05903545  0.66073233  0.03343071    -0.17600
C645        C  0.04567565  0.63002302  0.03376096     0.10700
C646        C  0.05299798  0.61231969  0.49416740    -0.06400
C647        C  0.06657020  0.62699150  0.45298777    -0.17600
C648        C  0.07748156  0.65855647  0.45197623     0.10800
S649        S  0.01866387  0.61732290  0.08482199    -0.32600
S650        S  0.08446173  0.67568292  0.39395057    -0.32600
H651        H  0.08020054  0.64876646  0.36674551     0.28800
H652        H  0.99134369  0.60064149  0.05863348     0.28800
H653        H  0.05493329  0.67384714  0.06504651     0.19400
H654        H  0.06814142  0.61361266  0.42097726     0.19400
C655        C  0.09565176  0.70983037  0.50195483    -0.02800
C656        C  0.44967840  0.77720368  0.50145084    -0.02800
Zn657      Zn  0.26917804  0.76322280  0.80463381     1.49700
Zn658      Zn  0.32618906  0.71810456  0.75420188     1.49400
Zn659      Zn  0.23727900  0.70207907  0.75272699     1.49100
Zn660      Zn  0.27112921  0.76053285  0.69465524     1.49500
O661        O  0.27590715  0.73573770  0.75132974    -1.84500
O662        O  0.31224674  0.76041515  0.84880215    -0.75100
O663        O  0.32252838  0.67169458  0.75150789    -0.74900
O664        O  0.20599819  0.70402557  0.81272497    -0.74400
O665        O  0.35177153  0.72825632  0.81561264    -0.75100
O666        O  0.22492050  0.74918814  0.84307763    -0.74700
O667        O  0.26075459  0.66031553  0.75101863    -0.75300
O668        O  0.23012668  0.74220144  0.65349619    -0.74700
O669        O  0.35934410  0.73410988  0.70056846    -0.75400
O670        O  0.20320058  0.70413601  0.69595921    -0.74800
O671        O  0.32063350  0.76352425  0.65955221    -0.75300
O672        O  0.25716799  0.80432996  0.70894830    -0.75200
O673        O  0.26120511  0.80783041  0.78658295    -0.75000
C674        C  0.34242355  0.74518932  0.85002405     0.76800
C675        C  0.29497081  0.65211347  0.75113570     0.77300
C676        C  0.20403118  0.72485137  0.84416606     0.76200
C677        C  0.20486870  0.72078733  0.65885793     0.76600
C678        C  0.35295225  0.75214486  0.66612054     0.77700
C679        C  0.25543501  0.82013589  0.74657941     0.76800
C680        C  0.34456467  0.52390161  0.74567404    -0.02800
C681        C  0.19829580  0.94731991  0.74478471    -0.02800
Zn682      Zn  0.03079432  0.51934200  0.55097065     1.49700
Zn683      Zn  0.47203712  0.97499740  0.99462751     1.49400
Zn684      Zn  0.03254558  0.51726343  0.93934479     1.49100
Zn685      Zn  0.06052247  0.95932939  0.99905649     1.49500
O686        O  0.02416429  0.99270005  0.99672944    -1.84500
O687        O  0.48376307  0.51678320  0.59112440    -0.75100
O688        O  0.44371672  0.98924902  0.93672470    -0.74900
O689        O  0.04215038  0.56240738  0.95597489    -0.74400
O690        O  0.44259375  0.98564849  0.55381001    -0.75100
O691        O  0.04216215  0.56357799  0.53273054    -0.74700
O692        O  0.48657086  0.51602938  0.89699888    -0.75300
O693        O  0.09576238  0.96133193  0.94227058    -0.74700
O694        O  0.47221221  0.92847554  0.99270904    -0.75400
O695        O  0.07696346  0.00168480  0.90121435    -0.74800
O696        O  0.03348351  0.91732910  0.99953895    -0.75300
O697        O  0.09316481  0.96136846  0.55718821    -0.75200
O698        O  0.07278609  0.00301280  0.59411100    -0.75000
C699        C  0.45181163  0.50248288  0.58877440     0.76800
C700        C  0.45320356  0.50433187  0.90067260     0.77300
C701        C  0.04461550  0.57689449  0.99494386     0.76200
C702        C  0.09896650  0.97913543  0.90640880     0.76600
C703        C  0.49813750  0.90877967  0.99550212     0.77700
C704        C  0.09454228  0.98019778  0.59151460     0.76800
C705        C  0.17534683  0.95358411  0.79191608    -0.06500
C706        C  0.16201242  0.98414380  0.79645233    -0.17600
C707        C  0.13962455  0.99372466  0.83419676     0.10700
C708        C  0.12766138  0.97226598  0.86913094    -0.06400
C709        C  0.14154901  0.94232118  0.86673852    -0.17600
C710        C  0.16465146  0.93242383  0.82954386     0.10800
S711        S  0.12824225  0.53481982  0.83542440    -0.32600
S712        S  0.17542680  0.89200362  0.83487964    -0.32600
H713        H  0.16145827  0.88263931  0.79108986     0.28800
H714        H  0.13400284  0.53757174  0.88426910     0.28800
H715        H  0.16990755  0.00132392  0.76999717     0.19400
H716        H  0.13283948  0.92562527  0.89356396     0.19400
C717        C  0.16995244  0.95693102  0.70486217    -0.06500
C718        C  0.17947351  0.98133825  0.67276547    -0.17600
C719        C  0.15597405  0.98949752  0.63540936     0.10700
C720        C  0.12051127  0.97436128  0.63057075    -0.06400
C721        C  0.10851203  0.95294883  0.66463700    -0.17600
C722        C  0.13175838  0.94467063  0.70215446     0.10800
S723        S  0.17397788  0.51885993  0.59280644    -0.32600
S724        S  0.11162273  0.91646143  0.74300526    -0.32600
H725        H  0.07335440  0.92002029  0.73157973     0.28800
H726        H  0.15439934  0.50773151  0.55316599     0.28800
H727        H  0.20541909  0.99476128  0.67590141     0.19400
H728        H  0.08067289  0.94212749  0.66117971     0.19400
C729        C  0.30732582  0.50295177  0.74624447    -0.06500
C730        C  0.29667159  0.98601673  0.70733701    -0.20200
C731        C  0.26319609  0.96776185  0.70586102     0.10700
C732        C  0.23632739  0.96816193  0.74378481    -0.06400
C733        C  0.24787423  0.98532865  0.78386733    -0.17600
C734        C  0.28148525  0.50240862  0.78522240     0.10800
S735        S  0.25623537  0.94457590  0.65373129    -0.32600
S736        S  0.29203979  0.52106412  0.84074673    -0.32600
H737        H  0.25474310  0.52192961  0.85825336     0.28800
H738        H  0.29386475  0.94554644  0.63717127     0.28800
H739        H  0.31342654  0.98710293  0.67555730     0.19400
H740        H  0.23174949  0.98374267  0.81613303     0.19400
C741        C  0.42570703  0.50917141  0.86197644    -0.06500
C742        C  0.39831349  0.98735511  0.85344515    -0.17600
C743        C  0.37237209  0.98980667  0.81619886     0.10700
C744        C  0.37227515  0.51627425  0.78724374    -0.06400
C745        C  0.40279264  0.53755869  0.79467845    -0.17600
C746        C  0.42808532  0.53509144  0.83179140     0.10800
S747        S  0.34427541  0.95520090  0.80365986    -0.32600
S748        S  0.46147974  0.56696488  0.83943314    -0.32600
H749        H  0.45626502  0.56844005  0.88858167     0.28800
H750        H  0.34568144  0.94194516  0.84894872     0.28800
H751        H  0.39792928  0.96656711  0.87480691     0.19400
H752        H  0.40588872  0.55782320  0.77275155     0.19400
C753        C  0.42385946  0.50719368  0.62691229    -0.06500
C754        C  0.41641291  0.53750422  0.63946772    -0.17600
C755        C  0.39103799  0.54458124  0.67585863     0.10700
C756        C  0.37103041  0.51998912  0.70109818    -0.06400
C757        C  0.38142571  0.48947948  0.68958475    -0.17600
C758        C  0.40675309  0.98387800  0.65363387     0.10800
S759        S  0.39047473  0.58531326  0.69051649    -0.32600
S760        S  0.41799717  0.94394018  0.64461105    -0.32600
H761        H  0.45565876  0.94956441  0.62997248     0.28800
H762        H  0.40126955  0.59707597  0.64593844     0.28800
H763        H  0.43162921  0.55601595  0.62097545     0.19400
H764        H  0.37144208  0.97145164  0.71208760     0.19400
C765        C  0.24424158  0.85287835  0.74344056    -0.06500
C766        C  0.21786340  0.86058657  0.70931321    -0.17600
C767        C  0.20270463  0.89005902  0.70603944     0.10700
C768        C  0.21274610  0.91335161  0.74047493    -0.06400
C769        C  0.24172585  0.90537282  0.77255215    -0.17600
C770        C  0.25736865  0.87606575  0.77428473     0.10800
S771        S  0.17163784  0.89303036  0.65602512    -0.32600
S772        S  0.29418909  0.87002300  0.81663219    -0.32600
H773        H  0.31505900  0.85040794  0.78756224     0.28800
H774        H  0.18785341  0.91986938  0.63610707     0.28800
H775        H  0.20843791  0.84296142  0.68465701     0.19400
H776        H  0.25153071  0.92202274  0.79840006     0.19400
C777        C  0.32836157  0.55723880  0.74825130    -0.06500
C778        C  0.33391300  0.57595767  0.78867809    -0.17600
C779        C  0.32188629  0.60626634  0.79101116     0.10700
C780        C  0.30316969  0.61908750  0.75258275    -0.06400
C781        C  0.29411720  0.60055205  0.71394944    -0.17600
C782        C  0.30606491  0.56991463  0.71114917     0.10800
S783        S  0.33101812  0.62734852  0.84466941    -0.32600
S784        S  0.29616231  0.54957556  0.65690291    -0.32600
H785        H  0.26771223  0.56884826  0.64049840     0.28800
H786        H  0.29956046  0.64638753  0.84193822     0.28800
H787        H  0.34711830  0.56725317  0.81988101     0.19400
H788        H  0.27938537  0.61073959  0.68471556     0.19400
C789        C  0.36692876  0.74832383  0.89217595    -0.06500
C790        C  0.35673453  0.76949240  0.92679576    -0.17600
C791        C  0.38091863  0.77786208  0.96347216     0.10700
C792        C  0.41824902  0.76554796  0.96552435    -0.06400
C793        C  0.42468451  0.74016035  0.93539870    -0.17600
C794        C  0.40010226  0.73168173  0.89908151     0.10800
S795        S  0.36038845  0.80482752  0.00412271    -0.32600
S796        S  0.41240676  0.69857918  0.86453984    -0.32600
H797        H  0.37564593  0.68533541  0.86680571     0.28800
H798        H  0.38947233  0.82725240  0.00294469     0.28800
H799        H  0.32985750  0.78078338  0.92456628     0.19400
H800        H  0.44866759  0.72579779  0.93994209     0.19400
C801        C  0.42924732  0.77047774  0.55010324    -0.06500
C802        C  0.41905750  0.79462856  0.58094808    -0.17600
C803        C  0.39574235  0.78924633  0.62042710     0.10700
C804        C  0.38307359  0.75895266  0.63133927    -0.06400
C805        C  0.39596087  0.73449035  0.60464022    -0.17600
C806        C  0.41853401  0.73952933  0.56448028     0.10800
S807        S  0.38174158  0.82224093  0.65432957    -0.32600
S808        S  0.43233323  0.70538527  0.53273163    -0.32600
H809        H  0.41037957  0.68265618  0.05818971     0.28800
H810        H  0.37580770  0.80621944  0.69709092     0.28800
H811        H  0.42622727  0.81845084  0.57288835     0.19400
H812        H  0.38625036  0.71125027  0.61380547     0.19400
C813        C  0.46172890  0.81195502  0.99467389    -0.06500
C814        C  0.48858425  0.82402736  0.52913053    -0.17600
C815        C  0.50138382  0.85484417  0.53037614     0.10700
C816        C  0.48724466  0.87558017  0.99554940    -0.06400
C817        C  0.46376094  0.86437174  0.95991608    -0.17600
C818        C  0.45189409  0.83319150  0.95738967     0.10800
S819        S  0.53077122  0.86671399  0.57913396    -0.32600
S820        S  0.42399031  0.82582551  0.90516141    -0.32600
H821        H  0.43804596  0.79745656  0.89239866     0.28800
H822        H  0.01606520  0.89479008  0.58496063     0.28800
H823        H  0.49711435  0.80960815  0.55796774     0.19400
H824        H  0.45511912  0.88032561  0.93273495     0.19400
C825        C  0.05876939  0.72856269  0.50511300    -0.06500
C826        C  0.03835407  0.73158426  0.96220747    -0.17600
C827        C  0.00788621  0.75133644  0.95963893     0.10700
C828        C  0.48792056  0.75901151  0.50055199    -0.06400
C829        C  0.00406092  0.75049610  0.54489013    -0.17600
C830        C  0.03952227  0.73693730  0.54751528     0.10800
S831        S  0.50163383  0.76943911  0.90302256    -0.32600
S832        S  0.05593403  0.72925361  0.60667743    -0.32600
H833        H  0.03798759  0.75393851  0.62887300     0.28800
H834        H  0.51064560  0.79935944  0.91922512     0.28800
H835        H  0.04972563  0.72313353  0.92949169     0.19400
H836        H  0.99061936  0.75572082  0.57802458     0.19400
C837        C  0.17712453  0.72122918  0.88343214    -0.06500
C838        C  0.15059605  0.74396811  0.88954937    -0.17600
C839        C  0.12428822  0.74329204  0.92675164     0.10700
C840        C  0.12365197  0.71733914  0.95944666    -0.06400
C841        C  0.15333629  0.69601748  0.95389712    -0.17600
C842        C  0.17925870  0.69741879  0.91666492     0.10800
S843        S  0.09642739  0.77797444  0.92469091    -0.32600
S844        S  0.21412018  0.66783952  0.91354457    -0.32600
H845        H  0.24311977  0.68646683  0.89309211     0.28800
H846        H  0.07914933  0.77946515  0.96855260     0.28800
H847        H  0.15066129  0.76294519  0.86440272     0.19400
H848        H  0.15529911  0.67660672  0.97777466     0.19400
C849        C  0.12196390  0.71282290  0.54666818    -0.06500
C850        C  0.13695626  0.68605912  0.56814784    -0.17600
C851        C  0.16281663  0.68768395  0.60536313     0.10700
C852        C  0.17602949  0.71663772  0.62164789    -0.06400
C853        C  0.16268137  0.74318072  0.60041099    -0.17600
C854        C  0.13677016  0.74190335  0.56344944     0.10800
S855        S  0.18085395  0.65202874  0.62745236    -0.32600
S856        S  0.12228611  0.77870681  0.54209488    -0.32600
H857        H  0.13403745  0.79559628  0.07627635     0.28800
H858        H  0.16552146  0.65617645  0.67279446     0.28800
H859        H  0.13033482  0.66325062  0.55487814     0.19400
H860        H  0.17246330  0.76546747  0.61349417     0.19400
C861        C  0.07850710  0.67442397  0.99447340    -0.06500
C862        C  0.06091472  0.66141387  0.53460810    -0.17600
C863        C  0.04769957  0.63070922  0.53453227     0.10700
C864        C  0.05257837  0.61096919  0.99457553    -0.06400
C865        C  0.06772119  0.62493502  0.95366228    -0.17600
C866        C  0.07854479  0.65646568  0.95196232     0.10800
S867        S  0.02331663  0.61714554  0.58709493    -0.32600
S868        S  0.08589030  0.67260607  0.89345029    -0.32600
H869        H  0.09543327  0.64503419  0.87078614     0.28800
H870        H  0.99421305  0.60156700  0.56235059     0.28800
H871        H  0.05806053  0.67391366  0.56698823     0.19400
H872        H  0.07007118  0.61117365  0.92208908     0.19400
C873        C  0.59657403  0.20922499  0.00151051    -0.02800
C874        C  0.94881406  0.27711856  0.00283519    -0.02800
Zn875      Zn  0.76817964  0.26421350  0.30558491     1.49700
Zn876      Zn  0.82498862  0.21871554  0.25585030     1.49400
Zn877      Zn  0.73603363  0.20282207  0.25417199     1.49100
Zn878      Zn  0.77035980  0.26081645  0.19562113     1.49500
O879        O  0.77482179  0.23636381  0.25264966    -1.84500
O880        O  0.81140588  0.26228331  0.34974788    -0.75100
O881        O  0.82113598  0.17227714  0.25452640    -0.74900
O882        O  0.70468622  0.20530709  0.31417086    -0.74400
O883        O  0.85073288  0.22988562  0.31672207    -0.75100
O884        O  0.72423623  0.25032119  0.34449805    -0.74700
O885        O  0.75939174  0.16088347  0.25291747    -0.75300
O886        O  0.73028266  0.24199250  0.15395120    -0.74700
O887        O  0.85811948  0.23383099  0.20160819    -0.75400
O888        O  0.70234808  0.20465019  0.19692342    -0.74800
O889        O  0.82000102  0.26397977  0.16103216    -0.75300
O890        O  0.75545058  0.30441289  0.20904843    -0.75200
O891        O  0.75958943  0.30841053  0.28664954    -0.75000
C892        C  0.84162203  0.24711615  0.35089936     0.76800
C893        C  0.79361244  0.15267244  0.25372068     0.77300
C894        C  0.70310963  0.22613116  0.34569208     0.76200
C895        C  0.70477183  0.22080868  0.15934824     0.76600
C896        C  0.85204822  0.25209086  0.16734567     0.77700
C897        C  0.75354588  0.32036592  0.24649103     0.76800
C898        C  0.84443094  0.02469047  0.24716028    -0.02800
C899        C  0.69713533  0.44755772  0.24339924    -0.02800
Zn900      Zn  0.53127370  0.01851600  0.05157315     1.49700
Zn901      Zn  0.97245252  0.47494293  0.49481461     1.49400
Zn902      Zn  0.53290877  0.01775848  0.43934239     1.49100
Zn903      Zn  0.56104377  0.45950175  0.49715949     1.49500
O904        O  0.52419556  0.49247988  0.49528000    -1.84500
O905        O  0.98366242  0.01736803  0.09264772    -0.75100
O906        O  0.94338136  0.48840726  0.43717031    -0.74900
O907        O  0.54269026  0.06304140  0.45593567    -0.74400
O908        O  0.94244050  0.48463664  0.05386761    -0.75100
O909        O  0.54304779  0.06281199  0.03352334    -0.74700
O910        O  0.98659080  0.01557845  0.39833740    -0.75300
O911        O  0.59552607  0.46222434  0.44029365    -0.74700
O912        O  0.97379511  0.42857223  0.49356631    -0.75400
O913        O  0.57614987  0.50245384  0.39943213    -0.74800
O914        O  0.53497541  0.41713603  0.49809885    -0.75300
O915        O  0.59263346  0.46238308  0.05581399    -0.75200
O916        O  0.57244040  0.50416124  0.09254193    -0.75000
C917        C  0.95155089  0.00337689  0.09006116     0.76800
C918        C  0.95316377  0.00398009  0.40209083     0.77300
C919        C  0.54551676  0.07728322  0.49510745     0.76200
C920        C  0.59841262  0.48010014  0.40453392     0.76600
C921        C  0.99999411  0.40912845  0.49627091     0.77700
C922        C  0.59406702  0.48126132  0.09004117     0.76800
C923        C  0.67427677  0.45421377  0.29029204    -0.06500
C924        C  0.66084752  0.48478433  0.29424053    -0.17600
C925        C  0.63840427  0.49455035  0.33176107     0.10700
C926        C  0.62699278  0.47333542  0.36728351    -0.06400
C927        C  0.64121828  0.44350668  0.36555723    -0.17600
C928        C  0.66395005  0.43334413  0.32835662     0.10800
S929        S  0.62806050  0.03455642  0.33443529    -0.32600
S930        S  0.67446246  0.39291588  0.33405812    -0.32600
H931        H  0.65860727  0.38349318  0.29126277     0.28800
H932        H  0.63397965  0.03778187  0.38318095     0.28800
H933        H  0.66856769  0.50176278  0.26739363     0.19400
H934        H  0.63288690  0.42699753  0.39283790     0.19400
C935        C  0.66912585  0.45726216  0.20319995    -0.06500
C936        C  0.67940250  0.48105605  0.17035774    -0.17600
C937        C  0.65599289  0.48934943  0.13300879     0.10700
C938        C  0.61990423  0.47522475  0.12908377    -0.06400
C939        C  0.60728523  0.45451954  0.16379482    -0.17600
C940        C  0.63048469  0.44593471  0.20113497     0.10800
S941        S  0.67179147  0.01931753  0.09545332    -0.32600
S942        S  0.60950581  0.41850163  0.24257144    -0.32600
H943        H  0.57149337  0.42549015  0.23439787     0.28800
H944        H  0.65195738  0.00884450  0.05562288     0.28800
H945        H  0.70585312  0.49383425  0.17281217     0.19400
H946        H  0.57900816  0.44438561  0.16096512     0.19400
C947        C  0.80723269  0.00364061  0.24712245    -0.06500
C948        C  0.79645355  0.48471950  0.20696509    -0.20200
C949        C  0.76267319  0.46687082  0.20522916     0.10700
C950        C  0.73537243  0.46804190  0.24254445    -0.06400
C951        C  0.74684192  0.48522494  0.28264035    -0.17600
C952        C  0.78092989  0.00322104  0.28556122     0.10800
S953        S  0.75601682  0.44305168  0.15368950    -0.32600
S954        S  0.79016764  0.02272673  0.34067871    -0.32600
H955        H  0.75208176  0.02628615  0.35387146     0.28800
H956        H  0.79435158  0.44170158  0.14035104     0.28800
H957        H  0.81344946  0.48538470  0.17540882     0.19400
H958        H  0.73040942  0.48410740  0.31465591     0.19400
C959        C  0.92541055  0.00922790  0.36370168    -0.06500
C960        C  0.89752726  0.48629745  0.35407346    -0.17600
C961        C  0.87176969  0.48852031  0.31654263     0.10700
C962        C  0.87184854  0.01692381  0.28906136    -0.06400
C963        C  0.90259156  0.03800266  0.29658334    -0.17600
C964        C  0.92781286  0.03530827  0.33381855     0.10800
S965        S  0.84361394  0.45393519  0.30389307    -0.32600
S966        S  0.96106287  0.06718679  0.34218881    -0.32600
H967        H  0.95590953  0.06809110  0.39139517     0.28800
H968        H  0.84818533  0.43878473  0.34733802     0.28800
H969        H  0.89718321  0.46561536  0.37568513     0.19400
H970        H  0.90591056  0.05822282  0.27462378     0.19400
C971        C  0.92365796  0.00811555  0.12823790    -0.06500
C972        C  0.91535792  0.03842059  0.13990422    -0.17600
C973        C  0.89043993  0.04546158  0.17683123     0.10700
C974        C  0.87115128  0.02083632  0.20279819    -0.06400
C975        C  0.88230412  0.99040776  0.19202914    -0.17600
C976        C  0.90666750  0.48232298  0.15389979     0.10800
S977        S  0.89004691  0.08615726  0.19167150    -0.32600
S978        S  0.91759686  0.44233939  0.14454654    -0.32600
H979        H  0.95501677  0.44777877  0.12885274     0.28800
H980        H  0.89949032  0.09791796  0.14664555     0.28800
H981        H  0.92984448  0.05696468  0.12061004     0.19400
H982        H  0.87121450  0.46991810  0.21230390     0.19400
C983        C  0.74209995  0.35293119  0.24304855    -0.06500
C984        C  0.71489356  0.36029685  0.20978734    -0.17600
C985        C  0.70010513  0.38986766  0.20611876     0.10700
C986        C  0.71103597  0.41343436  0.23967270    -0.06400
C987        C  0.74044550  0.40558197  0.27122222    -0.17600
C988        C  0.75611272  0.37634690  0.27283001     0.10800
S989        S  0.66869976  0.39287992  0.15652901    -0.32600
S990        S  0.79435378  0.37072217  0.31332664    -0.32600
H991        H  0.81431282  0.35093302  0.28351573     0.28800
H992        H  0.68668830  0.41860859  0.13535229     0.28800
H993        H  0.70479391  0.34241532  0.18591784     0.19400
H994        H  0.75082303  0.42235008  0.29657038     0.19400
C995        C  0.82823712  0.05806172  0.24983884    -0.06500
C996        C  0.83375219  0.07674920  0.29032550    -0.17600
C997        C  0.82091916  0.10680955  0.29317590     0.10700
C998        C  0.80195050  0.11962774  0.25495644    -0.06400
C999        C  0.79334338  0.10121438  0.21602265    -0.17600
C1000       C  0.80574976  0.07070372  0.21288994     0.10800
S1001       S  0.82893465  0.12752444  0.34739039    -0.32600
S1002       S  0.79603277  0.05039153  0.15855810    -0.32600
H1003       H  0.76790992  0.06983313  0.14175023     0.28800
H1004       H  0.79630990  0.14527182  0.34498399     0.28800
H1005       H  0.84715942  0.06806958  0.32142303     0.19400
H1006       H  0.77850675  0.11140570  0.18685982     0.19400
C1007       C  0.86645683  0.25045087  0.39272423    -0.06500
C1008       C  0.85819359  0.27331129  0.42568548    -0.17600
C1009       C  0.88297119  0.28113818  0.46221622     0.10700
C1010       C  0.91888945  0.26668050  0.46520443    -0.06400
C1011       C  0.92348207  0.24039412  0.43645033    -0.17600
C1012       C  0.89826777  0.23230933  0.40064845     0.10800
S1013       S  0.86901914  0.31292206  0.49908037    -0.32600
S1014       S  0.90814352  0.19790589  0.36780372    -0.32600
H1015       H  0.87046044  0.18665615  0.37004079     0.28800
H1016       H  0.82975485  0.30920348  0.49244729     0.28800
H1017       H  0.83294721  0.28655631  0.42151261     0.19400
H1018       H  0.94666723  0.22524791  0.44142984     0.19400
C1019       C  0.92835432  0.27033348  0.05138769    -0.06500
C1020       C  0.91869101  0.29437481  0.08269551    -0.17600
C1021       C  0.89549364  0.28891659  0.12225439     0.10700
C1022       C  0.88221509  0.25869714  0.13256361    -0.06400
C1023       C  0.89449155  0.23428642  0.10526887    -0.17600
C1024       C  0.91716625  0.23939927  0.06522335     0.10800
S1025       S  0.88245259  0.32171882  0.15718772    -0.32600
S1026       S  0.93041048  0.20539378  0.03278915    -0.32600
H1027       H  0.91016084  0.18321442  0.55739903     0.28800
H1028       H  0.87728850  0.30530029  0.19974642     0.28800
H1029       H  0.92628842  0.31817467  0.07505906     0.19400
H1030       H  0.88430771  0.21107470  0.11388246     0.19400
C1031       C  0.96319824  0.31237903  0.49457312    -0.06500
C1032       C  0.98801120  0.32388610  0.02981080    -0.17600
C1033       C  0.00130325  0.35457477  0.03034950     0.10700
C1034       C  0.98930805  0.37589125  0.49615928    -0.06400
C1035       C  0.96582982  0.36494649  0.46039713    -0.17600
C1036       C  0.95381679  0.33385373  0.45734382     0.10800
S1037       S  0.03201287  0.36629577  0.07792532    -0.32600
S1038       S  0.92812854  0.32695347  0.40312402    -0.32600
H1039       H  0.93934623  0.29737604  0.39269418     0.28800
H1040       H  0.51645757  0.39546372  0.08357032     0.28800
H1041       H  0.99684022  0.30944429  0.05850570     0.19400
H1042       H  0.95756070  0.38106795  0.43321840     0.19400
C1043       C  0.55974134  0.22795991  0.00460349    -0.06500
C1044       C  0.53867621  0.23261734  0.46346512    -0.17600
C1045       C  0.50803473  0.25213683  0.46081220     0.10700
C1046       C  0.98715736  0.25908788  0.00196739    -0.06400
C1047       C  0.50578501  0.25110636  0.04414734    -0.17600
C1048       C  0.54087275  0.23695399  0.04693632     0.10800
S1049       S  0.00081022  0.26667548  0.40157566    -0.32600
S1050       S  0.55723487  0.22912502  0.10613017    -0.32600
H1051       H  0.53783661  0.25263619  0.12932420     0.28800
H1052       H  0.00872654  0.29704947  0.41655686     0.28800
H1053       H  0.55077762  0.22501941  0.43071444     0.19400
H1054       H  0.49253565  0.25687259  0.07716000     0.19400
C1055       C  0.67656297  0.22258965  0.38535384    -0.06500
C1056       C  0.65074115  0.24573749  0.39263390    -0.17600
C1057       C  0.62463089  0.24491041  0.43006178     0.10700
C1058       C  0.62354452  0.21842913  0.46176915    -0.06400
C1059       C  0.65286884  0.19688700  0.45544264    -0.17600
C1060       C  0.67849850  0.19838551  0.41792556     0.10800
S1061       S  0.59775585  0.28017365  0.42959303    -0.32600
S1062       S  0.71278422  0.16843182  0.41356824    -0.32600
H1063       H  0.74210883  0.18716797  0.39405866     0.28800
H1064       H  0.57831286  0.28039497  0.47206827     0.28800
H1065       H  0.65112840  0.26509255  0.36816250     0.19400
H1066       H  0.65468086  0.17719071  0.47876864     0.19400
C1067       C  0.62301603  0.21239522  0.04604627    -0.06500
C1068       C  0.63778121  0.18569854  0.06796559    -0.17600
C1069       C  0.66323723  0.18747109  0.10560335     0.10700
C1070       C  0.67648659  0.21647704  0.12157837    -0.06400
C1071       C  0.66366600  0.24293577  0.09960107    -0.17600
C1072       C  0.63789661  0.24154840  0.06251761     0.10800
S1073       S  0.68053732  0.15191246  0.12897764    -0.32600
S1074       S  0.62336462  0.27830179  0.04094206    -0.32600
H1075       H  0.65509195  0.29520460  0.55253927     0.28800
H1076       H  0.66451391  0.15663839  0.17380654     0.28800
H1077       H  0.63110957  0.16283655  0.05495868     0.19400
H1078       H  0.67356563  0.26523942  0.11246637     0.19400
C1079       C  0.57871804  0.17506958  0.49619408    -0.06500
C1080       C  0.56160105  0.16089589  0.03440120    -0.17600
C1081       C  0.54857021  0.13010820  0.03454248     0.10700
C1082       C  0.55339066  0.11140600  0.49540148    -0.06400
C1083       C  0.56730732  0.12599026  0.45432216    -0.17600
C1084       C  0.57785269  0.15762957  0.45312600     0.10800
S1085       S  0.52295695  0.11690145  0.08640746    -0.32600
S1086       S  0.58468045  0.17459229  0.39498330    -0.32600
H1087       H  0.58461650  0.14720476  0.36854288     0.28800
H1088       H  0.49446954  0.10112926  0.06085164     0.28800
H1089       H  0.55816273  0.17364003  0.06643852     0.19400
H1090       H  0.56919819  0.11251618  0.42241563     0.19400
C1091       C  0.59513746  0.20925794  0.50281278    -0.02800
C1092       C  0.94983856  0.27735085  0.50129973    -0.02800
Zn1093     Zn  0.76925105  0.26400334  0.80481562     1.49700
Zn1094     Zn  0.82626705  0.21900061  0.75465512     1.49400
Zn1095     Zn  0.73741476  0.20264413  0.75314730     1.49100
Zn1096     Zn  0.77073951  0.26094101  0.69482926     1.49500
O1097       O  0.77589210  0.23637594  0.75164833    -1.84500
O1098       O  0.81217552  0.26149864  0.84933079    -0.75100
O1099       O  0.82285217  0.17249895  0.75410737    -0.74900
O1100       O  0.70580604  0.20507546  0.81259072    -0.74400
O1101       O  0.85226915  0.23019226  0.81534896    -0.75100
O1102       O  0.72498927  0.25015210  0.84300615    -0.74700
O1103       O  0.76113403  0.16095003  0.75289006    -0.75300
O1104       O  0.72960562  0.24264040  0.65394461    -0.74700
O1105       O  0.85880409  0.23429635  0.69996091    -0.75400
O1106       O  0.70346078  0.20416983  0.69618938    -0.74800
O1107       O  0.81998452  0.26385018  0.65931806    -0.75300
O1108       O  0.75669218  0.30460893  0.70896561    -0.75200
O1109       O  0.76108402  0.30839586  0.78654510    -0.75000
C1110       C  0.84271785  0.24674924  0.85009271     0.76800
C1111       C  0.79537664  0.15283181  0.75390830     0.77300
C1112       C  0.70393830  0.22592437  0.84398513     0.76200
C1113       C  0.70468190  0.22097482  0.65924800     0.76600
C1114       C  0.85224602  0.25228565  0.66549921     0.77700
C1115       C  0.75502665  0.32049407  0.74649216     0.76800
C1116       C  0.84509365  0.02461225  0.74736816    -0.02800
C1117       C  0.69792548  0.44746881  0.74343035    -0.02800
Zn1118     Zn  0.53072637  0.01835568  0.55213332     1.49700
Zn1119     Zn  0.97205062  0.47393713  0.99481447     1.49400
Zn1120     Zn  0.53337946  0.01774659  0.93900281     1.49100
Zn1121     Zn  0.56077680  0.45951000  0.99725498     1.49500
O1122       O  0.52388213  0.49248503  0.99513464    -1.84500
O1123       O  0.98328797  0.01679248  0.59202517    -0.75100
O1124       O  0.94320247  0.48764165  0.93687987    -0.74900
O1125       O  0.54404273  0.06294924  0.95549135    -0.74400
O1126       O  0.94309857  0.48629688  0.55362511    -0.75100
O1127       O  0.54243338  0.06263648  0.53399323    -0.74700
O1128       O  0.98731238  0.01654202  0.89826551    -0.75300
O1129       O  0.59572330  0.46189580  0.94053101    -0.74700
O1130       O  0.97365634  0.42773075  0.99294884    -0.75400
O1131       O  0.57633256  0.50205637  0.89957771    -0.74800
O1132       O  0.53456208  0.41725944  0.99786412    -0.75300
O1133       O  0.59345844  0.46230172  0.55518146    -0.75200
O1134       O  0.57399568  0.50430917  0.59189590    -0.75000
C1135       C  0.95121002  0.00279426  0.58944527     0.76800
C1136       C  0.95372265  0.00538610  0.90229716     0.77300
C1137       C  0.54660347  0.07731971  0.99457123     0.76200
C1138       C  0.59860253  0.47969593  0.90466491     0.76600
C1139       C  0.99988210  0.40832945  0.99574940     0.77700
C1140       C  0.59543595  0.48127943  0.58923058     0.76800
C1141       C  0.67481847  0.45397879  0.79028542    -0.06500
C1142       C  0.66112773  0.48445131  0.79419622    -0.17600
C1143       C  0.63835087  0.49408221  0.83152900     0.10700
C1144       C  0.62719707  0.47292287  0.86728615    -0.06400
C1145       C  0.64166515  0.44316167  0.86559548    -0.17600
C1146       C  0.66438478  0.43303350  0.82827504     0.10800
S1147       S  0.62918726  0.03399613  0.83612800    -0.32600
S1148       S  0.67460521  0.39250977  0.83367140    -0.32600
H1149       H  0.65958644  0.38330822  0.79031785     0.28800
H1150       H  0.63487005  0.03668951  0.88499717     0.28800
H1151       H  0.66874711  0.50144495  0.76733288     0.19400
H1152       H  0.63343780  0.42665487  0.89291805     0.19400
C1153       C  0.67009344  0.45713711  0.70294547    -0.06500
C1154       C  0.68059796  0.48077342  0.66990791    -0.17600
C1155       C  0.65757240  0.48870294  0.63200479     0.10700
C1156       C  0.62130635  0.47494784  0.62819692    -0.06400
C1157       C  0.60843968  0.45440743  0.66300457    -0.17600
C1158       C  0.63149739  0.44570931  0.70047443     0.10800
S1159       S  0.67476944  0.01845475  0.59434676    -0.32600
S1160       S  0.61054418  0.41811226  0.74175099    -0.32600
H1161       H  0.57249599  0.42110359  0.72887543     0.28800
H1162       H  0.64017281  0.02739051  0.57556923     0.28800
H1163       H  0.70705627  0.49356331  0.67239531     0.19400
H1164       H  0.58006876  0.44452154  0.66003654     0.19400
C1165       C  0.80799700  0.00341471  0.74771912    -0.06500
C1166       C  0.79704951  0.48498191  0.70696419    -0.20200
C1167       C  0.76349521  0.46688121  0.70539476     0.10700
C1168       C  0.73611497  0.46801433  0.74267378    -0.06400
C1169       C  0.74745895  0.48527568  0.78271923    -0.17600
C1170       C  0.78196904  0.00268624  0.78647200     0.10800
S1171       S  0.75721878  0.44291361  0.65396202    -0.32600
S1172       S  0.79177951  0.02190202  0.84172093    -0.32600
H1173       H  0.75406166  0.02352379  0.85751095     0.28800
H1174       H  0.79564506  0.44158410  0.64102836     0.28800
H1175       H  0.81397562  0.48575528  0.67532757     0.19400
H1176       H  0.73088884  0.48414137  0.81465911     0.19400
C1177       C  0.92622386  0.01030451  0.86368532    -0.06500
C1178       C  0.89786798  0.48590715  0.85320625    -0.17600
C1179       C  0.87222260  0.48847856  0.81564872     0.10700
C1180       C  0.87294569  0.01701881  0.78878540    -0.06400
C1181       C  0.90373936  0.03817487  0.79562819    -0.17600
C1182       C  0.92893201  0.03592515  0.83293398     0.10800
S1183       S  0.84439810  0.45387870  0.80229593    -0.32600
S1184       S  0.96253959  0.06770333  0.84014559    -0.32600
H1185       H  0.95763416  0.06932410  0.88932966     0.28800
H1186       H  0.84452559  0.44097100  0.84788385     0.28800
H1187       H  0.89725057  0.46508296  0.87450685     0.19400
H1188       H  0.90702693  0.05815421  0.77316011     0.19400
C1189       C  0.92327395  0.00776992  0.62748099    -0.06500
C1190       C  0.91503398  0.03813606  0.63898097    -0.17600
C1191       C  0.89036496  0.04530509  0.67615443     0.10700
C1192       C  0.87141812  0.02074767  0.70262085    -0.06400
C1193       C  0.88255162  0.99029445  0.69194810    -0.17600
C1194       C  0.90733514  0.48403745  0.65280220     0.10800
S1195       S  0.88983294  0.08605830  0.69064632    -0.32600
S1196       S  0.91894041  0.44427705  0.64291643    -0.32600
H1197       H  0.95697688  0.45033795  0.63024407     0.28800
H1198       H  0.90015951  0.09778103  0.64588722     0.28800
H1199       H  0.92938636  0.05659056  0.61938178     0.19400
H1200       H  0.87199183  0.47091386  0.71090817     0.19400
C1201       C  0.74358323  0.35308488  0.74320819    -0.06500
C1202       C  0.71676677  0.36048800  0.70944722    -0.17600
C1203       C  0.70167095  0.38994529  0.70589617     0.10700
C1204       C  0.71204936  0.41342147  0.73980690    -0.06400
C1205       C  0.74114379  0.40560422  0.77185779    -0.17600
C1206       C  0.75695714  0.37640637  0.77359349     0.10800
S1207       S  0.67042746  0.39285803  0.65610991    -0.32600
S1208       S  0.79445569  0.37072909  0.81515105    -0.32600
H1209       H  0.81503587  0.35107759  0.78580619     0.28800
H1210       H  0.68814700  0.41873418  0.63503865     0.28800
H1211       H  0.70710063  0.34270889  0.68521587     0.19400
H1212       H  0.75106844  0.42233485  0.79747896     0.19400
C1213       C  0.82889406  0.05795002  0.75050012    -0.06500
C1214       C  0.83499117  0.07666883  0.79087538    -0.17600
C1215       C  0.82300589  0.10700493  0.79352008     0.10700
C1216       C  0.80365710  0.11979819  0.75555251    -0.06400
C1217       C  0.79400984  0.10120783  0.71719471    -0.17600
C1218       C  0.80599235  0.07061107  0.71403967     0.10800
S1219       S  0.83281542  0.12806981  0.84701239    -0.32600
S1220       S  0.79527407  0.05031479  0.66002321    -0.32600
H1221       H  0.76553828  0.06891869  0.64546348     0.28800
H1222       H  0.80120147  0.14697461  0.84491530     0.28800
H1223       H  0.84849062  0.06791748  0.82185314     0.19400
H1224       H  0.77881327  0.11134465  0.68830244     0.19400
C1225       C  0.86726732  0.24973710  0.89224507    -0.06500
C1226       C  0.85684745  0.27042773  0.92746692    -0.17600
C1227       C  0.88089035  0.27836887  0.96453822     0.10700
C1228       C  0.91820515  0.26602435  0.96646484    -0.06400
C1229       C  0.92475442  0.24098415  0.93575838    -0.17600
C1230       C  0.90050822  0.23310011  0.89883061     0.10800
S1231       S  0.86046061  0.30509898  0.00563372    -0.32600
S1232       S  0.91349553  0.20082065  0.86289846    -0.32600
H1233       H  0.87701753  0.18702029  0.86467756     0.28800
H1234       H  0.88984304  0.32729254  0.00495422     0.28800
H1235       H  0.82996122  0.28171915  0.92538689     0.19400
H1236       H  0.94867306  0.22652047  0.94015675     0.19400
C1237       C  0.92913268  0.27049729  0.54982371    -0.06500
C1238       C  0.91864729  0.29464021  0.58050811    -0.17600
C1239       C  0.89494906  0.28929385  0.61962720     0.10700
C1240       C  0.88218507  0.25902883  0.63045149    -0.06400
C1241       C  0.89518490  0.23454559  0.60390024    -0.17600
C1242       C  0.91804582  0.23954593  0.56393152     0.10800
S1243       S  0.88081816  0.32228833  0.65343410    -0.32600
S1244       S  0.93263352  0.20535566  0.53282355    -0.32600
H1245       H  0.92364906  0.18370039  0.06918128     0.28800
H1246       H  0.87554035  0.30633973  0.69637860     0.28800
H1247       H  0.92593026  0.31845238  0.57253502     0.19400
H1248       H  0.88579119  0.21132805  0.61353743     0.19400
C1249       C  0.96202782  0.31205939  0.99582438    -0.06500
C1250       C  0.98854627  0.32427310  0.52925697    -0.17600
C1251       C  0.00130866  0.35513414  0.53060138     0.10700
C1252       C  0.98920293  0.37517126  0.99576266    -0.06400
C1253       C  0.96510449  0.36426006  0.96060853    -0.17600
C1254       C  0.95236911  0.33333747  0.95853501     0.10800
S1255       S  0.03119434  0.36682495  0.57899197    -0.32600
S1256       S  0.92365197  0.32643905  0.90687525    -0.32600
H1257       H  0.93787477  0.29833108  0.89300961     0.28800
H1258       H  0.51552591  0.39596085  0.58446183     0.28800
H1259       H  0.99716137  0.30979036  0.55797217     0.19400
H1260       H  0.95651235  0.38030475  0.93350597     0.19400
C1261       C  0.55823697  0.22792458  0.50581055    -0.06500
C1262       C  0.54006947  0.23257402  0.96231034    -0.17600
C1263       C  0.50940055  0.25206662  0.95972696     0.10700
C1264       C  0.98790495  0.25896004  0.50044396    -0.06400
C1265       C  0.50431987  0.25120984  0.54523576    -0.17600
C1266       C  0.53926182  0.23685023  0.54810377     0.10800
S1267       S  0.00170348  0.27062783  0.90435454    -0.32600
S1268       S  0.55528631  0.22868499  0.60733098    -0.32600
H1269       H  0.53634744  0.25247621  0.63046206     0.28800
H1270       H  0.01199977  0.30019092  0.92103067     0.28800
H1271       H  0.55209623  0.22493780  0.92953327     0.19400
H1272       H  0.49106651  0.25701650  0.57823219     0.19400
C1273       C  0.67729307  0.22227871  0.88341443    -0.06500
C1274       C  0.65164810  0.24551471  0.89089863    -0.17600
C1275       C  0.62575924  0.24476682  0.92852479     0.10700
C1276       C  0.62477330  0.21829200  0.96024876    -0.06400
C1277       C  0.65392062  0.19663206  0.95364536    -0.17600
C1278       C  0.67920603  0.19797641  0.91579495     0.10800
S1279       S  0.59910913  0.28015983  0.92830748    -0.32600
S1280       S  0.71300377  0.16769633  0.91069966    -0.32600
H1281       H  0.74264644  0.18639372  0.89184873     0.28800
H1282       H  0.57962915  0.28039160  0.97076728     0.28800
H1283       H  0.65205408  0.26490356  0.86648229     0.19400
H1284       H  0.65578658  0.17693433  0.97697433     0.19400
C1285       C  0.62141703  0.21247194  0.54750164    -0.06500
C1286       C  0.63630872  0.18582497  0.56938502    -0.17600
C1287       C  0.66215165  0.18764648  0.60659609     0.10700
C1288       C  0.67574790  0.21666876  0.62215989    -0.06400
C1289       C  0.66248691  0.24309992  0.60051124    -0.17600
C1290       C  0.63627568  0.24164185  0.56391280     0.10800
S1291       S  0.67942226  0.15207473  0.62993221    -0.32600
S1292       S  0.62139759  0.27838718  0.54284395    -0.32600
H1293       H  0.65498607  0.29617764  0.05553071     0.28800
H1294       H  0.66312057  0.15676320  0.67462874     0.28800
H1295       H  0.62956822  0.16292998  0.55653051     0.19400
H1296       H  0.67241325  0.26547409  0.61313685     0.19400
C1297       C  0.58001900  0.17507072  0.99510187    -0.06500
C1298       C  0.56042064  0.16073608  0.53543853    -0.17600
C1299       C  0.54755185  0.12992097  0.53550884     0.10700
C1300       C  0.55465158  0.11142259  0.99468150    -0.06400
C1301       C  0.56876015  0.12585301  0.95357154    -0.17600
C1302       C  0.57932218  0.15746597  0.95223559     0.10800
S1303       S  0.52280520  0.11635024  0.58780772    -0.32600
S1304       S  0.58561969  0.17412571  0.89390605    -0.32600
H1305       H  0.59561806  0.14686241  0.87071239     0.28800
H1306       H  0.49406438  0.10051908  0.56277342     0.28800
H1307       H  0.55710346  0.17337433  0.56767615     0.19400
H1308       H  0.57043858  0.11242092  0.92159983     0.19400
C1309       C  0.59574297  0.70939880  0.00233991    -0.02800
C1310       C  0.94914565  0.77705846  0.00262815    -0.02800
Zn1311     Zn  0.76865264  0.76365394  0.30481982     1.49700
Zn1312     Zn  0.82558067  0.71818397  0.25542211     1.49400
Zn1313     Zn  0.73690290  0.70217963  0.25314739     1.49100
Zn1314     Zn  0.77088082  0.76058467  0.19508730     1.49500
O1315       O  0.77544146  0.73584545  0.25188362    -1.84500
O1316       O  0.81152996  0.76160810  0.34947464    -0.75100
O1317       O  0.82209520  0.67163074  0.25409953    -0.74900
O1318       O  0.70524076  0.70472461  0.31281511    -0.74400
O1319       O  0.85090177  0.72924477  0.31653103    -0.75100
O1320       O  0.72456407  0.74982738  0.34305524    -0.74700
O1321       O  0.76038761  0.66019403  0.25215689    -0.75300
O1322       O  0.73055137  0.74214925  0.15331306    -0.74700
O1323       O  0.85877060  0.73370886  0.20153229    -0.75400
O1324       O  0.70331039  0.70428493  0.19591830    -0.74800
O1325       O  0.82061665  0.76377839  0.16077870    -0.75300
O1326       O  0.75605852  0.80420215  0.20879721    -0.75200
O1327       O  0.75995784  0.80785292  0.28640553    -0.75000
C1328       C  0.84167029  0.74635057  0.35078010     0.76800
C1329       C  0.79461207  0.65197844  0.25323147     0.77300
C1330       C  0.70345630  0.72565324  0.34414681     0.76200
C1331       C  0.70522265  0.72081807  0.15869146     0.76600
C1332       C  0.85272170  0.75202482  0.16731489     0.77700
C1333       C  0.75402954  0.82000148  0.24638100     0.76800
C1334       C  0.84443203  0.52357703  0.24622419    -0.02800
C1335       C  0.69782218  0.94730392  0.24442692    -0.02800
Zn1336     Zn  0.53035002  0.51850239  0.05086109     1.49700
Zn1337     Zn  0.97223531  0.97382055  0.49580268     1.49400
Zn1338     Zn  0.53245970  0.51792686  0.43845091     1.49100
Zn1339     Zn  0.56136131  0.95954072  0.49875854     1.49500
O1340       O  0.52427683  0.99243522  0.49624244    -1.84500
O1341       O  0.98271738  0.51617872  0.09145433    -0.75100
O1342       O  0.94328331  0.98768241  0.43793800    -0.74900
O1343       O  0.54249484  0.56327151  0.45459725    -0.74400
O1344       O  0.94292143  0.98616034  0.05522073    -0.75100
O1345       O  0.54206470  0.56276884  0.03297855    -0.74700
O1346       O  0.98639620  0.51642048  0.39725395    -0.75300
O1347       O  0.59632526  0.96210726  0.44206659    -0.74700
O1348       O  0.97370281  0.92742584  0.49413439    -0.75400
O1349       O  0.57701185  0.00221327  0.40085777    -0.74800
O1350       O  0.53491368  0.91729288  0.49904848    -0.75300
O1351       O  0.59142039  0.96091778  0.05782544    -0.75200
O1352       O  0.57340435  0.00385547  0.09324439    -0.75000
C1353       C  0.95078388  0.50192502  0.08870886     0.76800
C1354       C  0.95311418  0.50458335  0.40117774     0.77300
C1355       C  0.54537252  0.57749297  0.49376781     0.76200
C1356       C  0.59932141  0.97989428  0.40619438     0.76600
C1357       C  0.99988897  0.90792920  0.49651773     0.77700
C1358       C  0.59383599  0.98017841  0.09152053     0.76800
C1359       C  0.67495582  0.95380501  0.29152390    -0.06500
C1360       C  0.66146263  0.98436707  0.29557360    -0.17600
C1361       C  0.63937138  0.99422398  0.33338954     0.10700
C1362       C  0.62799012  0.97305366  0.36896922    -0.06400
C1363       C  0.64222053  0.94321544  0.36717462    -0.17600
C1364       C  0.66490296  0.93302079  0.32984541     0.10800
S1365       S  0.62656838  0.53477046  0.33242195    -0.32600
S1366       S  0.67621866  0.89279648  0.33628100    -0.32600
H1367       H  0.66188552  0.88278564  0.29300407     0.28800
H1368       H  0.63265571  0.53825702  0.38108936     0.28800
H1369       H  0.66905743  0.00135259  0.26870699     0.19400
H1370       H  0.63404450  0.92677420  0.39459499     0.19400
C1371       C  0.66944879  0.95675843  0.20459872    -0.06500
C1372       C  0.67879951  0.98122564  0.17260006    -0.17600
C1373       C  0.65512811  0.98924158  0.13538159     0.10700
C1374       C  0.61978521  0.97399391  0.13054010    -0.06400
C1375       C  0.60800636  0.95235824  0.16442469    -0.17600
C1376       C  0.63142924  0.94410397  0.20184628     0.10800
S1377       S  0.67404371  0.51844680  0.09216209    -0.32600
S1378       S  0.61205861  0.91551931  0.24276467    -0.32600
H1379       H  0.57490850  0.91353546  0.22553044     0.28800
H1380       H  0.64991448  0.51155353  0.05436819     0.28800
H1381       H  0.70476448  0.99465245  0.17560955     0.19400
H1382       H  0.58016713  0.94155021  0.16097986     0.19400
C1383       C  0.80724701  0.50258925  0.24646625    -0.06500
C1384       C  0.79662199  0.98572035  0.20761391    -0.20200
C1385       C  0.76303644  0.96755025  0.20589420     0.10700
C1386       C  0.73588662  0.96811853  0.24346794    -0.06400
C1387       C  0.74721222  0.98539899  0.28352402    -0.17600
C1388       C  0.78103903  0.50236649  0.28498402     0.10800
S1389       S  0.75658901  0.94407946  0.15405191    -0.32600
S1390       S  0.79104227  0.52128891  0.34042866    -0.32600
H1391       H  0.75330654  0.52389370  0.35568764     0.28800
H1392       H  0.79502033  0.94259959  0.14120848     0.28800
H1393       H  0.81364955  0.98656533  0.17608413     0.19400
H1394       H  0.73100127  0.98400290  0.31571780     0.19400
C1395       C  0.92541117  0.50927597  0.36270643    -0.06500
C1396       C  0.89723670  0.98654863  0.35472255    -0.17600
C1397       C  0.87139926  0.98928157  0.31734405     0.10700
C1398       C  0.87212251  0.51594020  0.28778075    -0.06400
C1399       C  0.90284003  0.53709885  0.29471391    -0.17600
C1400       C  0.92776799  0.53505049  0.33224403     0.10800
S1401       S  0.84324964  0.95480504  0.30418569    -0.32600
S1402       S  0.96031761  0.56742074  0.34046040    -0.32600
H1403       H  0.95469286  0.56864116  0.38957282     0.28800
H1404       H  0.84474487  0.94110489  0.34915596     0.28800
H1405       H  0.89678630  0.96563026  0.37575289     0.19400
H1406       H  0.90611196  0.55715308  0.27221491     0.19400
C1407       C  0.92274961  0.50659516  0.12665684    -0.06500
C1408       C  0.91426457  0.53690730  0.13793140    -0.17600
C1409       C  0.88969188  0.54406505  0.17508215     0.10700
C1410       C  0.87081972  0.51954060  0.20163946    -0.06400
C1411       C  0.88200611  0.48906776  0.19109440    -0.17600
C1412       C  0.90722439  0.98378438  0.15504315     0.10800
S1413       S  0.88949918  0.58480918  0.18950153    -0.32600
S1414       S  0.91800982  0.94380605  0.14540319    -0.32600
H1415       H  0.95548238  0.94916842  0.12985389     0.28800
H1416       H  0.89709067  0.59622014  0.14377108     0.28800
H1417       H  0.92849950  0.55542569  0.11825681     0.19400
H1418       H  0.87129890  0.97118714  0.21289507     0.19400
C1419       C  0.74269827  0.85262937  0.24325026    -0.06500
C1420       C  0.71609834  0.86030588  0.20942791    -0.17600
C1421       C  0.70159878  0.88997224  0.20569653     0.10700
C1422       C  0.71198586  0.91327994  0.24004068    -0.06400
C1423       C  0.74108760  0.90523459  0.27183462    -0.17600
C1424       C  0.75642444  0.87585692  0.27359483     0.10800
S1425       S  0.67166952  0.89326876  0.15459071    -0.32600
S1426       S  0.79373348  0.86976321  0.31524106    -0.32600
H1427       H  0.81423538  0.85016727  0.28571465     0.28800
H1428       H  0.68792732  0.92041669  0.13575966     0.28800
H1429       H  0.70635372  0.84261276  0.18503567     0.19400
H1430       H  0.75128449  0.92191232  0.29744282     0.19400
C1431       C  0.82837250  0.55701592  0.24918974    -0.06500
C1432       C  0.83430490  0.57569291  0.28963013    -0.17600
C1433       C  0.82215060  0.60596569  0.29243186     0.10700
C1434       C  0.80292501  0.61887899  0.25445792    -0.06400
C1435       C  0.79362775  0.60038890  0.21581567    -0.17600
C1436       C  0.80567469  0.56977156  0.21257583     0.10800
S1437       S  0.83149033  0.62681376  0.34622429    -0.32600
S1438       S  0.79531411  0.54947373  0.15841859    -0.32600
H1439       H  0.76696975  0.56891953  0.14223232     0.28800
H1440       H  0.79923843  0.64502187  0.34445542     0.28800
H1441       H  0.84770513  0.56691053  0.32067714     0.19400
H1442       H  0.77856713  0.61060957  0.18686635     0.19400
C1443       C  0.86620202  0.74936649  0.39293055    -0.06500
C1444       C  0.85610512  0.77034536  0.42789529    -0.17600
C1445       C  0.88028738  0.77823471  0.46486966     0.10700
C1446       C  0.91751697  0.76570216  0.46672288    -0.06400
C1447       C  0.92377989  0.74052558  0.43618589    -0.17600
C1448       C  0.89922511  0.73248419  0.39966120     0.10800
S1449       S  0.86012490  0.80508762  0.50598390    -0.32600
S1450       S  0.91145365  0.69962377  0.36452728    -0.32600
H1451       H  0.87476411  0.68623666  0.36702781     0.28800
H1452       H  0.88960243  0.82718937  0.50511730     0.28800
H1453       H  0.82933722  0.78182112  0.42574227     0.19400
H1454       H  0.94769121  0.72603258  0.44050928     0.19400
C1455       C  0.92916087  0.77028312  0.05154746    -0.06500
C1456       C  0.91891167  0.79444558  0.08232706    -0.17600
C1457       C  0.89557317  0.78907831  0.12176101     0.10700
C1458       C  0.88299114  0.75878276  0.13275402    -0.06400
C1459       C  0.89603755  0.73429817  0.10623885    -0.17600
C1460       C  0.91864530  0.73931826  0.06610250     0.10800
S1461       S  0.88130473  0.82211525  0.15538526    -0.32600
S1462       S  0.93267838  0.70514268  0.03459998    -0.32600
H1463       H  0.91827071  0.68242492  0.56619056     0.28800
H1464       H  0.87542011  0.80619496  0.19824317     0.28800
H1465       H  0.92592617  0.81827490  0.07418703     0.19400
H1466       H  0.88639018  0.71105658  0.11550462     0.19400
C1467       C  0.96168927  0.81160590  0.49605093    -0.06500
C1468       C  0.98776231  0.82417692  0.02981399    -0.17600
C1469       C  0.00009437  0.85511811  0.03105231     0.10700
C1470       C  0.98909637  0.87472822  0.49634503    -0.06400
C1471       C  0.96504440  0.86389717  0.46105336    -0.17600
C1472       C  0.95215672  0.83298916  0.45885266     0.10800
S1473       S  0.02941776  0.86719590  0.07976902    -0.32600
S1474       S  0.92328179  0.82628188  0.40726568    -0.32600
H1475       H  0.93694866  0.79797486  0.39345253     0.28800
H1476       H  0.51230671  0.89600700  0.08467466     0.28800
H1477       H  0.99661525  0.80983098  0.05857076     0.19400
H1478       H  0.95655152  0.88000069  0.43400745     0.19400
C1479       C  0.55878611  0.72804983  0.00514730    -0.06500
C1480       C  0.53983566  0.73258107  0.46221320    -0.17600
C1481       C  0.50901159  0.75190658  0.45936539     0.10700
C1482       C  0.98751447  0.75901760  0.00115125    -0.06400
C1483       C  0.50449552  0.75105063  0.04429365    -0.17600
C1484       C  0.53916173  0.73627945  0.04735532     0.10800
S1485       S  0.00054498  0.76986206  0.40397683    -0.32600
S1486       S  0.55505097  0.72821134  0.10668848    -0.32600
H1487       H  0.51949808  0.72830029  0.12932351     0.28800
H1488       H  0.01115416  0.79949806  0.42008026     0.28800
H1489       H  0.55200704  0.72495177  0.42950485     0.19400
H1490       H  0.49155631  0.75753250  0.07717454     0.19400
C1491       C  0.67693773  0.72217669  0.38374458    -0.06500
C1492       C  0.65102303  0.74527276  0.39089424    -0.17600
C1493       C  0.62543055  0.74472852  0.42885190     0.10700
C1494       C  0.62458553  0.71835526  0.46075455    -0.06400
C1495       C  0.65395655  0.69686726  0.45443946    -0.17600
C1496       C  0.67947304  0.69835326  0.41683725     0.10800
S1497       S  0.59902070  0.78024278  0.42900717    -0.32600
S1498       S  0.71455381  0.66898607  0.41311235    -0.32600
H1499       H  0.74354455  0.68818736  0.39383215     0.28800
H1500       H  0.57961876  0.78032124  0.47150992     0.28800
H1501       H  0.65112367  0.76446647  0.36613327     0.19400
H1502       H  0.65597903  0.67726443  0.47790458     0.19400
C1503       C  0.62193098  0.71263894  0.04711363    -0.06500
C1504       C  0.63743802  0.68596510  0.06821203    -0.17600
C1505       C  0.66333365  0.68770133  0.10531837     0.10700
C1506       C  0.67644642  0.71667597  0.12147482    -0.06400
C1507       C  0.66271215  0.74319197  0.10056109    -0.17600
C1508       C  0.63593069  0.74184222  0.06453517     0.10800
S1509       S  0.68154715  0.65215869  0.12754128    -0.32600
S1510       S  0.62001311  0.77854508  0.04423711    -0.32600
H1511       H  0.65440979  0.79570122  0.55613232     0.28800
H1512       H  0.66528928  0.65603873  0.17245937     0.28800
H1513       H  0.63108526  0.66314481  0.05483869     0.19400
H1514       H  0.67315475  0.76544856  0.11295419     0.19400
C1515       C  0.57968427  0.67507521  0.49506052    -0.06500
C1516       C  0.56147651  0.66070752  0.03505387    -0.17600
C1517       C  0.54845055  0.62994210  0.03499271     0.10700
C1518       C  0.55348600  0.61160205  0.49416173    -0.06400
C1519       C  0.56697526  0.62627685  0.45291320    -0.17600
C1520       C  0.57802647  0.65781599  0.45185265     0.10800
S1521       S  0.52392726  0.61637298  0.08744033    -0.32600
S1522       S  0.58582501  0.67452695  0.39374954    -0.32600
H1523       H  0.56819448  0.65078061  0.36745209     0.28800
H1524       H  0.49463390  0.60117082  0.06251498     0.28800
H1525       H  0.55852480  0.67317853  0.06744514     0.19400
H1526       H  0.56878599  0.61291457  0.42087761     0.19400
C1527       C  0.59621586  0.70919927  0.50178210    -0.02800
C1528       C  0.94830878  0.77666411  0.50294922    -0.02800
Zn1529     Zn  0.76871498  0.76328794  0.80572281     1.49700
Zn1530     Zn  0.82558593  0.71794481  0.75650820     1.49400
Zn1531     Zn  0.73666207  0.70188875  0.75392397     1.49100
Zn1532     Zn  0.77064068  0.76004404  0.69592813     1.49500
O1533       O  0.77534826  0.73548890  0.75280573    -1.84500
O1534       O  0.81149578  0.76103036  0.85052843    -0.75100
O1535       O  0.82194916  0.67152296  0.75484336    -0.74900
O1536       O  0.70495023  0.70447274  0.81343353    -0.74400
O1537       O  0.85095138  0.72863834  0.81782826    -0.75100
O1538       O  0.72451896  0.74946627  0.84384944    -0.74700
O1539       O  0.76020492  0.66008745  0.75334920    -0.75300
O1540       O  0.73026619  0.74149393  0.65417362    -0.74700
O1541       O  0.85881731  0.73353194  0.70267688    -0.75400
O1542       O  0.70308142  0.70351682  0.69649767    -0.74800
O1543       O  0.82023656  0.76299328  0.66149632    -0.75300
O1544       O  0.75626589  0.80380996  0.70957417    -0.75200
O1545       O  0.76044683  0.80759486  0.78714806    -0.75000
C1546       C  0.84160657  0.74574913  0.85202846     0.76800
C1547       C  0.79443186  0.65191045  0.75421781     0.77300
C1548       C  0.70328603  0.72534977  0.84484631     0.76200
C1549       C  0.70502960  0.72005524  0.65928509     0.76600
C1550       C  0.85247798  0.75153123  0.66815919     0.77700
C1551       C  0.75454286  0.81972696  0.74708464     0.76800
C1552       C  0.84483915  0.52401870  0.74602641    -0.02800
C1553       C  0.69853574  0.94712007  0.74481690    -0.02800
Zn1554     Zn  0.53113404  0.51845554  0.55093238     1.49700
Zn1555     Zn  0.97211259  0.97503303  0.99591926     1.49400
Zn1556     Zn  0.53264115  0.51791441  0.93842641     1.49100
Zn1557     Zn  0.56022903  0.95886274  0.99840689     1.49500
O1558       O  0.52417984  0.99246445  0.99583589    -1.84500
O1559       O  0.98315786  0.51837869  0.59049318    -0.75100
O1560       O  0.94351888  0.98950344  0.93842334    -0.74900
O1561       O  0.54311031  0.56319931  0.95497027    -0.74400
O1562       O  0.94278892  0.98522181  0.55492027    -0.75100
O1563       O  0.54222481  0.56279989  0.53259976    -0.74700
O1564       O  0.98685387  0.51516762  0.89735401    -0.75300
O1565       O  0.59587628  0.96109561  0.94209937    -0.74700
O1566       O  0.97270972  0.92852878  0.99348502    -0.75400
O1567       O  0.57724606  0.00148407  0.90094096    -0.74800
O1568       O  0.53293115  0.91702989  0.99824045    -0.75300
O1569       O  0.59353908  0.96236513  0.55743524    -0.75200
O1570       O  0.57267677  0.00380856  0.59435702    -0.75000
C1571       C  0.95128010  0.50402153  0.58800429     0.76800
C1572       C  0.95341596  0.50363097  0.90086389     0.77300
C1573       C  0.54570910  0.57742526  0.99418364     0.76200
C1574       C  0.59925353  0.97896390  0.90632383     0.76600
C1575       C  0.99874371  0.90893611  0.99651175     0.77700
C1576       C  0.59471527  0.98114142  0.59183179     0.76800
C1577       C  0.67553616  0.95336427  0.79192219    -0.06500
C1578       C  0.66232743  0.98395827  0.79648984    -0.17600
C1579       C  0.64003103  0.99358397  0.83427997     0.10700
C1580       C  0.62807067  0.97214331  0.86923249    -0.06400
C1581       C  0.64188263  0.94219045  0.86686636    -0.17600
C1582       C  0.66482721  0.93222131  0.82960047     0.10800
S1583       S  0.62551171  0.53407079  0.83141084    -0.32600
S1584       S  0.67537856  0.89175862  0.83510202    -0.32600
H1585       H  0.66155259  0.88236572  0.79126847     0.28800
H1586       H  0.63207487  0.53815731  0.87986789     0.28800
H1587       H  0.67025836  0.00112463  0.77003493     0.19400
H1588       H  0.63317034  0.92552651  0.89373538     0.19400
C1589       C  0.67032359  0.95687918  0.70478953    -0.06500
C1590       C  0.68015850  0.98108677  0.67247870    -0.17600
C1591       C  0.65647891  0.98966237  0.63550727     0.10700
C1592       C  0.62056274  0.97522045  0.63116460    -0.06400
C1593       C  0.60853458  0.95371107  0.66509675    -0.17600
C1594       C  0.63202250  0.94481465  0.70209201     0.10800
S1595       S  0.67624123  0.51664494  0.58985038    -0.32600
S1596       S  0.61217193  0.91610029  0.74239225    -0.32600
H1597       H  0.57415752  0.91737260  0.72853796     0.28800
H1598       H  0.65585178  0.50553963  0.55083234     0.28800
H1599       H  0.70647296  0.99405427  0.67515119     0.19400
H1600       H  0.58050422  0.94321040  0.66175008     0.19400
C1601       C  0.80774889  0.50291166  0.74637149    -0.06500
C1602       C  0.79722737  0.98564554  0.70815659    -0.20200
C1603       C  0.76381089  0.96732832  0.70649508     0.10700
C1604       C  0.73670598  0.96781983  0.74415462    -0.06400
C1605       C  0.74817985  0.98488038  0.78439052    -0.17600
C1606       C  0.78163599  0.50249080  0.78506199     0.10800
S1607       S  0.75729736  0.94385234  0.65458126    -0.32600
S1608       S  0.79183075  0.52130109  0.84057667    -0.32600
H1609       H  0.75440862  0.52234125  0.85759782     0.28800
H1610       H  0.79480207  0.94547938  0.63761100     0.28800
H1611       H  0.81404822  0.98680413  0.67642047     0.19400
H1612       H  0.73195792  0.98328281  0.81660826     0.19400
C1613       C  0.92607030  0.50858832  0.86200200    -0.06500
C1614       C  0.89822296  0.98742859  0.85513152    -0.17600
C1615       C  0.87270858  0.98954918  0.81737120     0.10700
C1616       C  0.87267624  0.51607381  0.78731138    -0.06400
C1617       C  0.90363010  0.53699469  0.79433703    -0.17600
C1618       C  0.92892223  0.53434543  0.83146778     0.10800
S1619       S  0.84513203  0.95474392  0.80409137    -0.32600
S1620       S  0.96289565  0.56584257  0.83873151    -0.32600
H1621       H  0.95741569  0.56780072  0.88779604     0.28800
H1622       H  0.85206214  0.93818252  0.84572112     0.28800
H1623       H  0.89772080  0.96684331  0.87691025     0.19400
H1624       H  0.90703055  0.55709264  0.77208001     0.19400
C1625       C  0.92326632  0.50856907  0.62602818    -0.06500
C1626       C  0.91453607  0.53875181  0.63782032    -0.17600
C1627       C  0.88980682  0.54545507  0.67509011     0.10700
C1628       C  0.87109476  0.52057401  0.70116748    -0.06400
C1629       C  0.88254323  0.49029727  0.69002098    -0.17600
C1630       C  0.90710123  0.98355654  0.65468047     0.10800
S1631       S  0.88923035  0.58607733  0.69032656    -0.32600
S1632       S  0.91789896  0.94357547  0.64521977    -0.32600
H1633       H  0.95573844  0.94902810  0.63117680     0.28800
H1634       H  0.89719957  0.59796498  0.64496691     0.28800
H1635       H  0.92866547  0.55747717  0.61850591     0.19400
H1636       H  0.87178612  0.97113654  0.71305867     0.19400
C1637       C  0.74347493  0.85245630  0.74380853    -0.06500
C1638       C  0.71729244  0.86028758  0.70950637    -0.17600
C1639       C  0.70258286  0.88990699  0.70596867     0.10700
C1640       C  0.71270955  0.91311391  0.74049671    -0.06400
C1641       C  0.74147254  0.90497995  0.77274036    -0.17600
C1642       C  0.75676067  0.87558160  0.77464984     0.10800
S1643       S  0.67218728  0.89327507  0.65534447    -0.32600
S1644       S  0.79331621  0.86933860  0.81728491    -0.32600
H1645       H  0.81438225  0.84993368  0.78809782     0.28800
H1646       H  0.68865902  0.92020449  0.63604613     0.28800
H1647       H  0.70779510  0.84269997  0.68481976     0.19400
H1648       H  0.75133810  0.92157389  0.79864562     0.19400
C1649       C  0.82856003  0.55728250  0.74943983    -0.06500
C1650       C  0.83475569  0.57585744  0.78988803    -0.17600
C1651       C  0.82228379  0.60600221  0.79305191     0.10700
C1652       C  0.80272800  0.61888127  0.75534688    -0.06400
C1653       C  0.79323606  0.60049777  0.71670891    -0.17600
C1654       C  0.80554458  0.57000244  0.71306972     0.10800
S1655       S  0.83153619  0.62671573  0.84696583    -0.32600
S1656       S  0.79490517  0.54969151  0.65893529    -0.32600
H1657       H  0.77182823  0.57183183  0.63828842     0.28800
H1658       H  0.79913301  0.64476298  0.84540718     0.28800
H1659       H  0.84858821  0.56707120  0.82063110     0.19400
H1660       H  0.77772679  0.61074312  0.68817643     0.19400
C1661       C  0.86607885  0.74892143  0.89420297    -0.06500
C1662       C  0.85652921  0.77063952  0.92833353    -0.17600
C1663       C  0.88094383  0.77878150  0.96495577     0.10700
C1664       C  0.91795113  0.76585727  0.96706841    -0.06400
C1665       C  0.92344217  0.73993659  0.93773301    -0.17600
C1666       C  0.89860374  0.73157985  0.90166698     0.10800
S1667       S  0.86108921  0.80610789  0.00556704    -0.32600
S1668       S  0.90970364  0.69770468  0.86821647    -0.32600
H1669       H  0.87241851  0.68555181  0.87045350     0.28800
H1670       H  0.89050927  0.82821915  0.00418777     0.28800
H1671       H  0.83002184  0.78244881  0.92579187     0.19400
H1672       H  0.94695528  0.72512343  0.94259889     0.19400
C1673       C  0.92800426  0.76984075  0.55159161    -0.06500
C1674       C  0.91834163  0.79391808  0.58281913    -0.17600
C1675       C  0.89523688  0.78851672  0.62245055     0.10700
C1676       C  0.88250858  0.75823465  0.63330944    -0.06400
C1677       C  0.89476029  0.73380323  0.60606666    -0.17600
C1678       C  0.91686998  0.73889558  0.56552699     0.10800
S1679       S  0.88130870  0.82151708  0.65639900    -0.32600
S1680       S  0.92958209  0.70491092  0.53261089    -0.32600
H1681       H  0.92330876  0.68317184  0.06978254     0.28800
H1682       H  0.87546230  0.80551424  0.69918922     0.28800
H1683       H  0.92571684  0.81772660  0.57493478     0.19400
H1684       H  0.88482124  0.71060586  0.61512179     0.19400
C1685       C  0.96226348  0.81208345  0.99547778    -0.06500
C1686       C  0.98769706  0.82331934  0.53011311    -0.17600
C1687       C  0.00106463  0.85400362  0.53084130     0.10700
C1688       C  0.98799832  0.87569335  0.99641589    -0.06400
C1689       C  0.96460667  0.86449589  0.96067530    -0.17600
C1690       C  0.95257702  0.83334684  0.95816133     0.10800
S1691       S  0.03164278  0.86556605  0.57861241    -0.32600
S1692       S  0.92454334  0.82612853  0.90599439    -0.32600
H1693       H  0.93743154  0.79727751  0.89388388     0.28800
H1694       H  0.51451945  0.89572482  0.58505025     0.28800
H1695       H  0.99642242  0.80881432  0.55876953     0.19400
H1696       H  0.95605887  0.88046854  0.93346318     0.19400
C1697       C  0.55933011  0.72792866  0.50463917    -0.06500
C1698       C  0.53955464  0.73301989  0.96263778    -0.17600
C1699       C  0.50876127  0.75239021  0.95992657     0.10700
C1700       C  0.98661137  0.75857975  0.50181932    -0.06400
C1701       C  0.50534861  0.75130978  0.54380821    -0.17600
C1702       C  0.53998981  0.73650909  0.54683304     0.10800
S1703       S  0.99974427  0.76726227  0.90219549    -0.32600
S1704       S  0.55608944  0.72867095  0.60611619    -0.32600
H1705       H  0.52050779  0.72842493  0.62871602     0.28800
H1706       H  0.00787236  0.79759989  0.91717482     0.28800
H1707       H  0.55191765  0.72569089  0.92990959     0.19400
H1708       H  0.49258054  0.75796245  0.57672477     0.19400
C1709       C  0.67668006  0.72192293  0.88435842    -0.06500
C1710       C  0.65121151  0.74531240  0.89176300    -0.17600
C1711       C  0.62546310  0.74484785  0.92955362     0.10700
C1712       C  0.62425672  0.71843515  0.96136494    -0.06400
C1713       C  0.65333804  0.69667772  0.95491488    -0.17600
C1714       C  0.67863378  0.69781835  0.91706750     0.10800
S1715       S  0.59936227  0.78050415  0.92953601    -0.32600
S1716       S  0.71239208  0.66747134  0.91235814    -0.32600
H1717       H  0.74191175  0.68586186  0.89255693     0.28800
H1718       H  0.57924410  0.78049217  0.97147251     0.28800
H1719       H  0.65168743  0.76462198  0.86719862     0.19400
H1720       H  0.65509325  0.67698772  0.97823781     0.19400
C1721       C  0.62249316  0.71218803  0.54657445    -0.06500
C1722       C  0.63747901  0.68540718  0.56804791    -0.17600
C1723       C  0.66306158  0.68697683  0.60555663     0.10700
C1724       C  0.67644608  0.71590155  0.62173851    -0.06400
C1725       C  0.66329185  0.74246565  0.60033012    -0.17600
C1726       C  0.63723121  0.74125415  0.56351122     0.10800
S1727       S  0.68026003  0.65125294  0.62847960    -0.32600
S1728       S  0.62219541  0.77808025  0.54283852    -0.32600
H1729       H  0.63237671  0.79686566  0.08225820     0.28800
H1730       H  0.66454377  0.65589175  0.67350142     0.28800
H1731       H  0.63094958  0.66259826  0.55469969     0.19400
H1732       H  0.67314400  0.76472646  0.61343632     0.19400
C1733       C  0.57939307  0.67518070  0.99568743    -0.06500
C1734       C  0.56172926  0.66072985  0.53451583    -0.17600
C1735       C  0.54871976  0.62996508  0.53467357     0.10700
C1736       C  0.55392868  0.61151800  0.99469403    -0.06400
C1737       C  0.56779819  0.62616832  0.95364128    -0.17600
C1738       C  0.57829311  0.65782667  0.95252390     0.10800
S1739       S  0.52575181  0.61620473  0.58806180    -0.32600
S1740       S  0.58501127  0.67488394  0.89441283    -0.32600
H1741       H  0.58200071  0.64778333  0.86742369     0.28800
H1742       H  0.49575849  0.60106281  0.56436098     0.28800
H1743       H  0.55904525  0.67323252  0.56690572     0.19400
H1744       H  0.56966472  0.61273953  0.92170046     0.19400
loop_ 
_geom_bond_atom_site_label_1 
_geom_bond_atom_site_label_2 
_geom_bond_distance 
_geom_bond_site_symmetry_2 
_ccdc_geom_bond_type 
C1          C171   1.559       .  S
C1          C195   1.583       .  S
C1          C404   1.576   1_554  S
C1          C425   1.586   1_554  S
C2          C147   1.573       .  S
C2          C174   1.585       .  S
C2          C356   1.570   1_554  S
C2          C377   1.582   1_554  S
Zn3           O7   1.946       .  S
Zn3           O8   1.993       .  S
Zn3          O12   1.979       .  S
Zn3          O19   2.017       .  S
Zn4           O7   1.956       .  S
Zn4           O9   2.012       .  S
Zn4          O11   2.013       .  S
Zn4          O15   2.021       .  S
Zn5           O7   1.967       .  S
Zn5          O10   2.026       .  S
Zn5          O13   2.008       .  S
Zn5          O16   2.026       .  S
Zn6           O7   1.942       .  S
Zn6          O14   2.014       .  S
Zn6          O17   2.009       .  S
Zn6          O18   2.011       .  S
O8           C20   1.272       .  A
O9           C21   1.273       .  A
O10          C22   1.274       .  A
O11          C20   1.271       .  A
O12          C22   1.269       .  A
O13          C21   1.271       .  A
O14          C23   1.276       .  A
O15          C24   1.274       .  A
O16          C23   1.273       .  A
O17          C24   1.273       .  A
O18          C25   1.272       .  A
O19          C25   1.272       .  A
C20         C135   1.488       .  S
C21         C126   1.467       .  S
C22         C183   1.464       .  S
C23         C198   1.482       .  S
C24         C150   1.469       .  S
C25         C111   1.481       .  S
C26          C75   1.577       .  S
C26          C90   1.581       .  S
C26         C102   1.580       .  S
C26         C123   1.570       .  S
C27          C51   1.587       .  S
C27          C63   1.578       .  S
C27          C78   1.595       .  S
C27         C114   1.577       .  S
Zn28        O686   1.960   1_544  S
Zn28         O37   2.010       .  S
Zn28        O905   2.017   1_455  S
Zn28        O480   2.023       .  S
Zn29        O904   1.972       .  S
Zn29         O34   2.037       .  S
Zn29         O40   2.007       .  S
Zn29        O254   2.031       .  S
Zn30        O468   1.963   1_545  S
Zn30         O35   2.038       .  S
Zn30        O910   2.022   1_455  S
Zn30        O477   2.035       .  S
Zn31         O32   1.963       .  S
Zn31         O39   2.021       .  S
Zn31         O42   2.031       .  S
Zn31        O261   2.018       .  S
O32        Zn682   1.959       .  S
O32        Zn901   1.971   1_455  S
O32        Zn466   1.965       .  S
O33        Zn900   2.014       .  S
O33          C45   1.274       .  A
O34         C482   1.276       .  A
O35          C47   1.277       .  A
O36        Zn247   2.036   1_554  S
O36         C481   1.275       .  A
O37         C265   1.272   1_554  A
O38        Zn902   2.019       .  S
O38          C46   1.273       .  A
O39          C48   1.276       .  A
O40          C49   1.272       .  A
O41        Zn466   2.034       .  S
O41          C48   1.275       .  A
O42         C921   1.274   1_455  A
O43        Zn249   2.018   1_554  S
O43          C50   1.273       .  A
O44        Zn464   2.025       .  S
O44          C50   1.272       .  A
C45         O472   1.275   1_545  A
C45          C99   1.477       .  S
C46         O470   1.276   1_545  A
C46          C87   1.492       .  S
C47         O255   1.272       .  A
C47         C210   1.495       .  S
C48          C54   1.496       .  S
C49         O914   1.274       .  A
C49         C162   1.475       .  S
C50          C66   1.471       .  S
C51          C52   1.425       .  A
C51          C56   1.442       .  A
C52          C53   1.398       .  A
C52          H61   1.083       .  S
C53          C54   1.409       .  A
C53         S493   1.803       .  S
C54          C55   1.402       .  A
C55          C56   1.404       .  A
C55          H62   1.084       .  S
C56          S58   1.805       .  S
S57         C489   1.803   1_545  S
S57          H60   1.408       .  S
S58          H59   1.399       .  S
C63          C64   1.422       .  A
C63          C68   1.439       .  A
C64          C65   1.402       .  A
C64          H73   1.076       .  S
C65          C66   1.404       .  A
C65         S505   1.806       .  S
C66          C67   1.392       .  A
C67          C68   1.402       .  A
C67          H74   1.084       .  S
C68          S70   1.809       .  S
S69         C501   1.806   1_545  S
S69          H72   1.404       .  S
S70          H71   1.407       .  S
C75          C80   1.428       .  A
C75         C512   1.413   1_545  A
C76          C77   1.404       .  A
C76         C511   1.412       .  A
C76          H85   1.075       .  S
C77          C78   1.429       .  A
C77          S81   1.805       .  S
C78          C79   1.417       .  A
C79         C516   1.402       .  A
C79          H86   1.076       .  S
C80         C515   1.404   1_545  A
C80          S82   1.810       .  S
S81          H84   1.408       .  S
S82          H83   1.407       .  S
C87          C92   1.409       .  A
C87         C524   1.404   1_545  A
C88          C89   1.413       .  A
C88         C523   1.403       .  A
C88          H97   1.082       .  S
C89         C526   1.438       .  A
C89          S93   1.814       .  S
C90          C91   1.416       .  A
C90         C525   1.438   1_545  A
C91          C92   1.394       .  A
C91          H98   1.076       .  S
C92          S94   1.804       .  S
S93          H96   1.406       .  S
S94          H95   1.408       .  S
C99         C100   1.393       .  A
C99         C540   1.404   1_545  A
C100        C101   1.405       .  A
C100        H109   1.083       .  S
C101        C102   1.446       .  A
C101        S105   1.816       .  S
C102        C103   1.420   1_545  A
C103        C540   1.399       .  A
C103        H546   1.080       .  S
C104        C535   1.406       .  A
C104        C539   1.401       .  A
C104        S106   1.804       .  S
S105        H108   1.407       .  S
S106        H107   1.406       .  S
H110        C539   1.080       .  S
C111        C112   1.395       .  A
C111        C116   1.404       .  A
C112        C113   1.401       .  A
C112        H121   1.085       .  S
C113        C114   1.447       .  A
C113        S117   1.809       .  S
C114        C115   1.425       .  A
C115        C116   1.398       .  A
C115        H122   1.082       .  S
C116        S118   1.803       .  S
S117        H120   1.396       .  S
S118        H119   1.408       .  S
C123        C124   1.420       .  A
C123        C128   1.437       .  A
C124        C125   1.393       .  A
C124        H133   1.078       .  S
C125        C126   1.402       .  A
C125        S129   1.805       .  S
C126        C127   1.394       .  A
C127        C128   1.405       .  A
C127        H134   1.084       .  S
C128        S130   1.808       .  S
S129        H132   1.407       .  S
S130        H131   1.407       .  S
C135        C136   1.399       .  A
C135        C140   1.410       .  A
C136        C137   1.397       .  A
C136        H145   1.084       .  S
C137        C138   1.440       .  A
C137        S141   1.807       .  S
C138        C220   1.569       .  S
C138        C139   1.417       .  A
C139        C140   1.397       .  A
C139        H146   1.075       .  S
C140        S142   1.802       .  S
S141        H144   1.394       .  S
S142        H143   1.406       .  S
C147        C148   1.419       .  A
C147        C152   1.437       .  A
C148        C149   1.400       .  A
C148        H157   1.078       .  S
C149        C150   1.406       .  A
C149        S153   1.805       .  S
C150        C151   1.391       .  A
C151        C152   1.398       .  A
C151        H158   1.084       .  S
C152        S154   1.812       .  S
S153        H156   1.406       .  S
S154        H373   1.407       .  S
H155        S372   1.408       .  S
C159        C220   1.582       .  S
C159        C164   1.449       .  A
C159        C378   1.424       .  A
C160        C161   1.397       .  A
C160        C377   1.424   1_554  A
C160        H169   1.078       .  S
C161        C380   1.402   1_554  A
C161        S165   1.805       .  S
C162        C163   1.393       .  A
C162        C379   1.401       .  A
C163        C164   1.402       .  A
C163        H170   1.085       .  S
C164        S166   1.811       .  S
S165       H1040   1.407       .  S
S166        H167   1.387       .  S
H168       S1037   1.407       .  S
C171        C176   1.433       .  A
C171        C390   1.408   1_554  A
C172        C173   1.397       .  A
C172        C389   1.409       .  A
C172        H181   1.076       .  S
C173       C1264   1.421   1_455  A
C173       S1049   1.795       .  S
C174       C1263   1.420   1_554  A
C174       C1047   1.421       .  A
C175        C176   1.404       .  A
C175       C1046   1.421   1_455  A
C175        H182   1.076   1_455  S
C176        S178   1.819       .  S
S177       C1045   1.795       .  S
S177        H180   1.405       .  S
S178        H179   1.406       .  S
C183        C184   1.390       .  A
C183        C188   1.398       .  A
C184        C185   1.401       .  A
C184        H193   1.085       .  S
C185        C186   1.453       .  A
C185        S189   1.822       .  S
C186        C219   1.574       .  S
C186        C187   1.426       .  A
C187        C188   1.393       .  A
C187        H194   1.080       .  S
C188        S190   1.806       .  S
S189        H192   1.383       .  S
S190        H191   1.406       .  S
C195        C196   1.425       .  A
C195        C200   1.435       .  A
C196        C197   1.403       .  A
C196        H205   1.079       .  S
C197        C198   1.406       .  A
C197        S201   1.799       .  S
C198        C199   1.392       .  A
C199        C200   1.399       .  A
C199        H206   1.083       .  S
C200        S202   1.796       .  S
S201        H204   1.407       .  S
S202        H421   1.406       .  S
H203        S420   1.407       .  S
C207        C219   1.585       .  S
C207        C212   1.438       .  A
C207        C426   1.416       .  A
C208        C209   1.396       .  A
C208        C425   1.415   1_554  A
C208        H217   1.073       .  S
C209        C428   1.412   1_554  A
C209        S213   1.804       .  S
C210        C211   1.401       .  A
C210        C427   1.413       .  A
C211        C212   1.407       .  A
C211        H218   1.082       .  S
C212        S214   1.812       .  S
S213        H216   1.408   1_455  S
S214        H215   1.407       .  S
C219        C389   1.559       .  S
C219        C413   1.584       .  S
C220        C365   1.572       .  S
C220        C392   1.584       .  S
Zn221       O225   1.947       .  S
Zn221       O226   1.994       .  S
Zn221       O230   1.979       .  S
Zn221       O237   2.024       .  S
Zn222       O225   1.956       .  S
Zn222       O227   2.009       .  S
Zn222       O229   2.010       .  S
Zn222       O233   2.013       .  S
Zn223       O225   1.968       .  S
Zn223       O228   2.029       .  S
Zn223       O231   2.015       .  S
Zn223       O234   2.027       .  S
Zn224       O225   1.942       .  S
Zn224       O232   2.016       .  S
Zn224       O235   2.002       .  S
Zn224       O236   2.009       .  S
O226        C238   1.272       .  A
O227        C239   1.272       .  A
O228        C240   1.275       .  A
O229        C238   1.270       .  A
O230        C240   1.269       .  A
O231        C239   1.272       .  A
O232        C241   1.276       .  A
O233        C242   1.273       .  A
O234        C241   1.274       .  A
O235        C242   1.272       .  A
O236        C243   1.272       .  A
O237        C243   1.273       .  A
C238        C353   1.488       .  S
C239        C344   1.468       .  S
C240        C401   1.465       .  S
C241        C416   1.483       .  S
C242        C368   1.466       .  S
C243        C329   1.483       .  S
C244        C293   1.578       .  S
C244        C308   1.581       .  S
C244        C320   1.580       .  S
C244        C341   1.571       .  S
C245        C269   1.586       .  S
C245        C281   1.581       .  S
C245        C296   1.595       .  S
C245        C332   1.574       .  S
Zn246       O468   1.960   1_545  S
Zn246      O1123   2.011   1_455  S
Zn246       O255   2.009       .  S
Zn246       O698   2.018       .  S
Zn247      O1122   1.973       .  S
Zn247       O252   2.036       .  S
Zn247       O258   2.011       .  S
Zn248       O686   1.964   1_545  S
Zn248       O253   2.038       .  S
Zn248      O1128   2.015   1_455  S
Zn248       O695   2.031       .  S
Zn249       O250   1.963       .  S
Zn249       O257   2.023       .  S
Zn249       O260   2.025       .  S
O250       Zn464   1.959   1_556  S
O250      Zn1119   1.972   1_455  S
O250       Zn684   1.960       .  S
O251      Zn1118   2.015       .  S
O251        C263   1.274       .  A
O252        C700   1.276       .  A
O253        C265   1.276       .  A
O254        C699   1.274       .  A
O256      Zn1120   2.022       .  S
O256        C264   1.274       .  A
O257        C266   1.276       .  A
O258        C267   1.273       .  A
O259       Zn684   2.026       .  S
O259        C266   1.274       .  A
O260       C1139   1.274   1_455  A
O261        C268   1.273       .  A
O262       Zn682   2.025       .  S
O262        C268   1.273       .  A
C263        O690   1.275   1_545  A
C263        C317   1.478       .  S
C264        O688   1.276   1_545  A
C264        C305   1.492       .  S
C265        C428   1.495       .  S
C266        C272   1.494       .  S
C267       O1132   1.274       .  A
C267        C380   1.476       .  S
C268        C284   1.471       .  S
C269        C270   1.424       .  A
C269        C274   1.445       .  A
C270        C271   1.399       .  A
C270        H279   1.083       .  S
C271        C272   1.409       .  A
C271        S711   1.803       .  S
C272        C273   1.400       .  A
C273        C274   1.403       .  A
C273        H280   1.084       .  S
C274        S276   1.808       .  S
S275        C707   1.803   1_545  S
S275        H278   1.408       .  S
S276        H277   1.398       .  S
C281        C282   1.424       .  A
C281        C286   1.440       .  A
C282        C283   1.402       .  A
C282        H291   1.076       .  S
C283        C284   1.403       .  A
C283        S723   1.805       .  S
C284        C285   1.391       .  A
C285        C286   1.403       .  A
C285        H292   1.083       .  S
C286        S288   1.808       .  S
S287        C719   1.809   1_545  S
S287        H290   1.402       .  S
S288        H289   1.406       .  S
C293        C730   1.412   1_545  A
C293        C298   1.428       .  A
C294        C729   1.412       .  A
C294        C295   1.403       .  A
C294        H303   1.075       .  S
C295        C296   1.430       .  A
C295        S299   1.806       .  S
C296        C297   1.417       .  A
C297        C734   1.404       .  A
C297        H304   1.076       .  S
C298        C733   1.405   1_545  A
C298        S300   1.810       .  S
S299        H302   1.407       .  S
S300        H301   1.407       .  S
C305        C742   1.403   1_545  A
C305        C310   1.409       .  A
C306        C741   1.404       .  A
C306        C307   1.412       .  A
C306        H315   1.082       .  S
C307        C744   1.437       .  A
C307        S311   1.814       .  S
C308        C743   1.437   1_545  A
C308        C309   1.417       .  A
C309        C310   1.395       .  A
C309        H316   1.076       .  S
C310        S312   1.804       .  S
S311        H314   1.406       .  S
S312        H313   1.408       .  S
C317        C318   1.394       .  A
C317        C758   1.405   1_545  A
C318        C319   1.404       .  A
C318        H327   1.084       .  S
C319        C320   1.444       .  A
C319        S323   1.813       .  S
C320        C321   1.420   1_545  A
C321        C758   1.400       .  A
C321        H764   1.080       .  S
C322        C753   1.406       .  A
C322        C757   1.401       .  A
C322        S324   1.805       .  S
S323        H326   1.407       .  S
S324        H325   1.406       .  S
H328        C757   1.079       .  S
C329        C330   1.397       .  A
C329        C334   1.405       .  A
C330        C331   1.401       .  A
C330        H339   1.084       .  S
C331        C332   1.445       .  A
C331        S335   1.808       .  S
C332        C333   1.426       .  A
C333        C334   1.398       .  A
C333        H340   1.082       .  S
C334        S336   1.803       .  S
S335        H338   1.396       .  S
S336        H337   1.407       .  S
C341        C342   1.420       .  A
C341        C346   1.437       .  A
C342        C343   1.393       .  A
C342        H351   1.077       .  S
C343        C344   1.401       .  A
C343        S347   1.804       .  S
C344        C345   1.395       .  A
C345        C346   1.406       .  A
C345        H352   1.083       .  S
C346        S348   1.808       .  S
S347        H350   1.407       .  S
S348        H349   1.407       .  S
C353        C354   1.399       .  A
C353        C358   1.411       .  A
C354        C355   1.395       .  A
C354        H363   1.084       .  S
C355        C356   1.440       .  A
C355        S359   1.807   1_556  S
C356        C357   1.417       .  A
C357        C358   1.398       .  A
C357        H364   1.075       .  S
C358        S360   1.802       .  S
S359        H362   1.394       .  S
S360        H361   1.406       .  S
C365        C366   1.419       .  A
C365        C370   1.437       .  A
C366        C367   1.400       .  A
C366        H375   1.078       .  S
C367        C368   1.405       .  A
C367        S371   1.805       .  S
C368        C369   1.390       .  A
C369        C370   1.396       .  A
C369        H376   1.084       .  S
C370        S372   1.810       .  S
S371        H374   1.406       .  S
C377        C382   1.449       .  A
C378        C379   1.397       .  A
C378        H387   1.078       .  S
C379        S383   1.805       .  S
C380        C381   1.393       .  A
C381        C382   1.403       .  A
C381        H388   1.085       .  S
C382        S384   1.811       .  S
S383       H1258   1.407       .  S
S384        H385   1.387       .  S
H386       S1255   1.406       .  S
C389        C394   1.429       .  A
C390        C391   1.395       .  A
C390        H399   1.077       .  S
C391       C1046   1.419   1_456  A
C391       S1267   1.795       .  S
C392       C1045   1.420       .  A
C392       C1265   1.421       .  A
C393       C1264   1.421   1_455  A
C393        C394   1.403       .  A
C393        H400   1.078   1_455  S
C394        S396   1.813       .  S
S395       C1263   1.796       .  S
S395        H398   1.405       .  S
S396        H397   1.408       .  S
C401        C402   1.390       .  A
C401        C406   1.398       .  A
C402        C403   1.402       .  A
C402        H411   1.086       .  S
C403        C404   1.454       .  A
C403        S407   1.822       .  S
C404        C405   1.426       .  A
C405        C406   1.393       .  A
C405        H412   1.081       .  S
C406        S408   1.806       .  S
S407        H410   1.382       .  S
S408        H409   1.406       .  S
C413        C414   1.425       .  A
C413        C418   1.435       .  A
C414        C415   1.403       .  A
C414        H423   1.079       .  S
C415        C416   1.406       .  A
C415        S419   1.799       .  S
C416        C417   1.392       .  A
C417        C418   1.400       .  A
C417        H424   1.083       .  S
C418        S420   1.794       .  S
S419        H422   1.407       .  S
C425        C430   1.439       .  A
C426        C427   1.398       .  A
C426        H435   1.075       .  S
C427        S431   1.804       .  S
C428        C429   1.402       .  A
C429        C430   1.409       .  A
C429        H436   1.081       .  S
C430        S432   1.814       .  S
S431        H434   1.408   1_455  S
S432        H433   1.406       .  S
C437        C607   1.559       .  S
C437        C840   1.575   1_554  S
C437        C631   1.583       .  S
C437        C861   1.585   1_554  S
C438        C792   1.568   1_554  S
C438        C583   1.575       .  S
C438        C813   1.583   1_554  S
C438        C610   1.585       .  S
Zn439       O443   1.947       .  S
Zn439       O444   1.991       .  S
Zn439       O448   1.976       .  S
Zn439       O455   2.020       .  S
Zn440       O443   1.959       .  S
Zn440       O445   2.010       .  S
Zn440       O447   2.019       .  S
Zn440       O451   2.020       .  S
Zn441       O443   1.970       .  S
Zn441       O446   2.029       .  S
Zn441       O449   2.017       .  S
Zn441       O452   2.031       .  S
Zn442       O443   1.942       .  S
Zn442       O450   2.017       .  S
Zn442       O453   2.008       .  S
Zn442       O454   2.019       .  S
O444        C456   1.272       .  A
O445        C457   1.273       .  A
O446        C458   1.275       .  A
O447        C456   1.272       .  A
O448        C458   1.269       .  A
O449        C457   1.272       .  A
O450        C459   1.276       .  A
O451        C460   1.274       .  A
O452        C459   1.274       .  A
O453        C460   1.273       .  A
O454        C461   1.273       .  A
O455        C461   1.272       .  A
C456        C571   1.490       .  S
C457        C562   1.468       .  S
C458        C619   1.464       .  S
C459        C634   1.485       .  S
C460        C586   1.468       .  S
C461        C547   1.485       .  S
C462        C511   1.576       .  S
C462        C526   1.580       .  S
C462        C538   1.580       .  S
C462        C559   1.571       .  S
C463        C487   1.588       .  S
C463        C499   1.579       .  S
C463        C514   1.596       .  S
C463        C550   1.579       .  S
Zn464      O1341   2.014   1_455  S
Zn464       O473   2.017       .  S
Zn465      O1340   1.975       .  S
Zn465       O470   2.039       .  S
Zn465       O690   2.035       .  S
Zn465       O476   2.008       .  S
Zn466       O471   2.041       .  S
Zn466      O1346   2.017   1_455  S
Zn467       O468   1.967       .  S
Zn467       O475   2.027       .  S
Zn467       O478   2.031       .  S
Zn467       O697   2.024       .  S
O468      Zn1337   1.973   1_455  S
O469      Zn1336   2.013       .  S
O469        C481   1.274       .  A
O471        C483   1.277       .  A
O472       Zn683   2.032   1_554  S
O473        C701   1.273   1_554  A
O474      Zn1338   2.013       .  S
O474        C482   1.273       .  A
O475        C484   1.276       .  A
O476        C485   1.273       .  A
O477        C484   1.275   1_545  A
O478       C1357   1.275   1_455  A
O479       Zn685   2.023   1_554  S
O479        C486   1.274       .  A
O480        C486   1.272   1_545  A
C481        C535   1.479       .  S
C482        C523   1.490       .  S
C483        O691   1.272       .  A
C483        C646   1.495       .  S
C484        C490   1.497       .  S
C485       O1350   1.275       .  A
C485        C598   1.475       .  S
C486        C502   1.472       .  S
C487        C488   1.425       .  A
C487        C492   1.443       .  A
C488        C489   1.399       .  A
C488        H497   1.083   1_565  S
C489        C490   1.409       .  A
C490        C491   1.402       .  A
C491        C492   1.405       .  A
C491        H498   1.084       .  S
C492        S494   1.806       .  S
S493        H496   1.408       .  S
S494        H495   1.399       .  S
C499        C500   1.423       .  A
C499        C504   1.438       .  A
C500        C501   1.403       .  A
C500        H509   1.077       .  S
C501        C502   1.405       .  A
C502        C503   1.392       .  A
C503        C504   1.403       .  A
C503        H510   1.083       .  S
C504        S506   1.809       .  S
S505        H508   1.404       .  S
S506        H507   1.406       .  S
C511        C516   1.428       .  A
C512        C513   1.405       .  A
C512        H521   1.075       .  S
C513        C514   1.429       .  A
C513        S517   1.805       .  S
C514        C515   1.417       .  A
C515        H522   1.075       .  S
C516        S518   1.810       .  S
S517        H520   1.407       .  S
S518        H519   1.408       .  S
C523        C528   1.409       .  A
C524        C525   1.413       .  A
C524        H533   1.081       .  S
C525        S529   1.814       .  S
C526        C527   1.416       .  A
C527        C528   1.393       .  A
C527        H534   1.075       .  S
C528        S530   1.805       .  S
S529        H532   1.406       .  S
S530        H531   1.408       .  S
C535        C536   1.394       .  A
C536        C537   1.403       .  A
C536        H545   1.084       .  S
C537        C538   1.444       .  A
C537        S541   1.814       .  S
C538        C539   1.420       .  A
C540        S542   1.805       .  S
S541        H544   1.407       .  S
S542        H543   1.406       .  S
C547        C548   1.395       .  A
C547        C552   1.405       .  A
C548        C549   1.402       .  A
C548        H557   1.085       .  S
C549        C550   1.448       .  A
C549        S553   1.810       .  S
C550        C551   1.425       .  A
C551        C552   1.400       .  A
C551        H558   1.082       .  S
C552        S554   1.803       .  S
S553        H556   1.395       .  S
S554        H555   1.407       .  S
C559        C560   1.420       .  A
C559        C564   1.438       .  A
C560        C561   1.393       .  A
C560        H569   1.077       .  S
C561        C562   1.401       .  A
C561        S565   1.805       .  S
C562        C563   1.395       .  A
C563        C564   1.407       .  A
C563        H570   1.083       .  S
C564        S566   1.810       .  S
S565        H568   1.407       .  S
S566        H567   1.406       .  S
C571        C572   1.400       .  A
C571        C576   1.410       .  A
C572        C573   1.396       .  A
C572        H581   1.084       .  S
C573        C574   1.440       .  A
C573        S577   1.808       .  S
C574        C656   1.570       .  S
C574        C575   1.418       .  A
C575        C576   1.398       .  A
C575        H582   1.075       .  S
C576        S578   1.802       .  S
S577        H580   1.393       .  S
S578        H579   1.407       .  S
C583        C584   1.419       .  A
C583        C588   1.439       .  A
C584        C585   1.399       .  A
C584        H593   1.078       .  S
C585        C586   1.405       .  A
C585        S589   1.805       .  S
C586        C587   1.391       .  A
C587        C588   1.399       .  A
C587        H594   1.083       .  S
C588        S590   1.813       .  S
S589        H592   1.406       .  S
S590        H809   1.406       .  S
H591        S808   1.407       .  S
C595        C656   1.583       .  S
C595        C814   1.424       .  A
C595        C600   1.450       .  A
C596        C813   1.424   1_554  A
C596        C597   1.397       .  A
C596        H605   1.077       .  S
C597        C816   1.401   1_554  A
C597        S601   1.805       .  S
C598        C815   1.401       .  A
C598        C599   1.393       .  A
C599        C600   1.403       .  A
C599        H606   1.085       .  S
C600        S602   1.812       .  S
S601       H1476   1.407       .  S
S602        H603   1.386       .  S
H604       S1473   1.407       .  S
C607        C826   1.408   1_554  A
C607        C612   1.432       .  A
C608        C825   1.408       .  A
C608        C609   1.396       .  A
C608        H617   1.077       .  S
C609       C1700   1.420   1_455  A
C609       S1485   1.795       .  S
C610       C1699   1.421   1_554  A
C610       C1483   1.420       .  A
C611       C1482   1.420   1_455  A
C611        C612   1.403       .  A
C611        H618   1.078   1_455  S
C612        S614   1.815       .  S
S613       C1481   1.796       .  S
S613        H616   1.405       .  S
S614        H615   1.407       .  S
C619        C620   1.391       .  A
C619        C624   1.397       .  A
C620        C621   1.402       .  A
C620        H629   1.086       .  S
C621        C622   1.453       .  A
C621        S625   1.822       .  S
C622        C655   1.574       .  S
C622        C623   1.426       .  A
C623        C624   1.392       .  A
C623        H630   1.081       .  S
C624        S626   1.805       .  S
S625        H628   1.383       .  S
S626        H627   1.406       .  S
C631        C632   1.425       .  A
C631        C636   1.434       .  A
C632        C633   1.405       .  A
C632        H641   1.079       .  S
C633        C634   1.408       .  A
C633        S637   1.799       .  S
C634        C635   1.393       .  A
C635        C636   1.398       .  A
C635        H642   1.083       .  S
C636        S638   1.793       .  S
S637        H640   1.407       .  S
S638        H857   1.407       .  S
H639        S856   1.408       .  S
C643        C655   1.585       .  S
C643        C862   1.415       .  A
C643        C648   1.439       .  A
C644        C861   1.416   1_554  A
C644        C645   1.398       .  A
C644        H653   1.075       .  S
C645        C864   1.411   1_554  A
C645        S649   1.804       .  S
C646        C863   1.412       .  A
C646        C647   1.402       .  A
C647        C648   1.409       .  A
C647        H654   1.081       .  S
C648        S650   1.815       .  S
S649        H652   1.408   1_455  S
S650        H651   1.406       .  S
C655        C825   1.558       .  S
C655        C849   1.583       .  S
C656        C801   1.575       .  S
C656        C828   1.585       .  S
Zn657       O661   1.946       .  S
Zn657       O662   1.987       .  S
Zn657       O666   1.980       .  S
Zn657       O673   2.024       .  S
Zn658       O661   1.958       .  S
Zn658       O663   2.012       .  S
Zn658       O665   2.014       .  S
Zn658       O669   2.021       .  S
Zn659       O661   1.968       .  S
Zn659       O664   2.026       .  S
Zn659       O667   2.012       .  S
Zn659       O670   2.023       .  S
Zn660       O661   1.941       .  S
Zn660       O668   2.016       .  S
Zn660       O671   2.008       .  S
Zn660       O672   2.016       .  S
O662        C674   1.271       .  A
O663        C675   1.273       .  A
O664        C676   1.274       .  A
O665        C674   1.271       .  A
O666        C676   1.269       .  A
O667        C675   1.271       .  A
O668        C677   1.276       .  A
O669        C678   1.274       .  A
O670        C677   1.273       .  A
O671        C678   1.273       .  A
O672        C679   1.273       .  A
O673        C679   1.272       .  A
C674        C789   1.487       .  S
C675        C780   1.468       .  S
C676        C837   1.464       .  S
C677        C852   1.482       .  S
C678        C804   1.469       .  S
C679        C765   1.486       .  S
C680        C729   1.577       .  S
C680        C744   1.580       .  S
C680        C756   1.580       .  S
C680        C777   1.570       .  S
C681        C705   1.587       .  S
C681        C717   1.581       .  S
C681        C732   1.597       .  S
C681        C768   1.576       .  S
Zn682      O1559   2.015   1_455  S
Zn682       O691   2.010       .  S
Zn683      O1558   1.973       .  S
Zn683       O688   2.034       .  S
Zn683       O694   2.015       .  S
Zn684       O689   2.032       .  S
Zn684      O1564   2.016   1_455  S
Zn685       O686   1.964       .  S
Zn685       O693   2.029       .  S
Zn685       O696   2.029       .  S
O686      Zn1555   1.973   1_455  S
O687      Zn1554   2.018       .  S
O687        C699   1.275       .  A
O689        C701   1.276       .  A
O692      Zn1556   2.017       .  S
O692        C700   1.274       .  A
O693        C702   1.276       .  A
O694        C703   1.273       .  A
O695        C702   1.275   1_545  A
O696       C1575   1.275   1_455  A
O697        C704   1.273       .  A
O698        C704   1.272   1_545  A
C699        C753   1.479       .  S
C700        C741   1.491       .  S
C701        C864   1.494       .  S
C702        C708   1.497       .  S
C703       O1568   1.274       .  A
C703        C816   1.477       .  S
C704        C720   1.471       .  S
C705        C706   1.424       .  A
C705        C710   1.445       .  A
C706        C707   1.398       .  A
C706        H715   1.084   1_565  S
C707        C708   1.409       .  A
C708        C709   1.402       .  A
C709        C710   1.406       .  A
C709        H716   1.084       .  S
C710        S712   1.808       .  S
S711        H714   1.408       .  S
S712        H713   1.398       .  S
C717        C718   1.423       .  A
C717        C722   1.439       .  A
C718        C719   1.403       .  A
C718        H727   1.076       .  S
C719        C720   1.406       .  A
C720        C721   1.391       .  A
C721        C722   1.402       .  A
C721        H728   1.083       .  S
C722        S724   1.807       .  S
S723        H726   1.405       .  S
S724        H725   1.407       .  S
C729        C734   1.429       .  A
C730        C731   1.405       .  A
C730        H739   1.075       .  S
C731        C732   1.430       .  A
C731        S735   1.806       .  S
C732        C733   1.418       .  A
C733        H740   1.076       .  S
C734        S736   1.810       .  S
S735        H738   1.407       .  S
S736        H737   1.407       .  S
C741        C746   1.409       .  A
C742        C743   1.411       .  A
C742        H751   1.083       .  S
C743        S747   1.811       .  S
C744        C745   1.416       .  A
C745        C746   1.393       .  A
C745        H752   1.076       .  S
C746        S748   1.805       .  S
S747        H750   1.407       .  S
S748        H749   1.407       .  S
C753        C754   1.393       .  A
C754        C755   1.403       .  A
C754        H763   1.083       .  S
C755        C756   1.445       .  A
C755        S759   1.814       .  S
C756        C757   1.420       .  A
C758        S760   1.805       .  S
S759        H762   1.407       .  S
S760        H761   1.406       .  S
C765        C766   1.396       .  A
C765        C770   1.406       .  A
C766        C767   1.402       .  A
C766        H775   1.085       .  S
C767        C768   1.446       .  A
C767        S771   1.808       .  S
C768        C769   1.425       .  A
C769        C770   1.400       .  A
C769        H776   1.083       .  S
C770        S772   1.803       .  S
S771        H774   1.396       .  S
S772        H773   1.407       .  S
C777        C778   1.419       .  A
C777        C782   1.437       .  A
C778        C779   1.393       .  A
C778        H787   1.076       .  S
C779        C780   1.401       .  A
C779        S783   1.805       .  S
C780        C781   1.395       .  A
C781        C782   1.406       .  A
C781        H788   1.082       .  S
C782        S784   1.808       .  S
S783        H786   1.406       .  S
S784        H785   1.407       .  S
C789        C790   1.399       .  A
C789        C794   1.409       .  A
C790        C791   1.395       .  A
C790        H799   1.084       .  S
C791        C792   1.440       .  A
C791        S795   1.808   1_556  S
C792        C793   1.418       .  A
C793        C794   1.397       .  A
C793        H800   1.075       .  S
C794        S796   1.802       .  S
S795        H798   1.393       .  S
S796        H797   1.406       .  S
C801        C802   1.419       .  A
C801        C806   1.438       .  A
C802        C803   1.400       .  A
C802        H811   1.078       .  S
C803        C804   1.406       .  A
C803        S807   1.805       .  S
C804        C805   1.391       .  A
C805        C806   1.399       .  A
C805        H812   1.083       .  S
C806        S808   1.812       .  S
S807        H810   1.406       .  S
C813        C818   1.450       .  A
C814        C815   1.397       .  A
C814        H823   1.078       .  S
C815        S819   1.805       .  S
C816        C817   1.394       .  A
C817        C818   1.404       .  A
C817        H824   1.085       .  S
C818        S820   1.812       .  S
S819       H1694   1.407       .  S
S820        H821   1.387       .  S
H822       S1691   1.407       .  S
C825        C830   1.431       .  A
C826        C827   1.397       .  A
C826        H835   1.078       .  S
C827       C1482   1.422   1_456  A
C827       S1703   1.796   1_455  S
C828       C1481   1.421       .  A
C828       C1701   1.421       .  A
C829       C1700   1.421   1_455  A
C829        C830   1.403       .  A
C829        H836   1.078   1_455  S
C830        S832   1.813       .  S
S831       C1699   1.795       .  S
S831        H834   1.405       .  S
S832        H833   1.408       .  S
C837        C838   1.390       .  A
C837        C842   1.398       .  A
C838        C839   1.401       .  A
C838        H847   1.086       .  S
C839        C840   1.454       .  A
C839        S843   1.821       .  S
C840        C841   1.426       .  A
C841        C842   1.393       .  A
C841        H848   1.081       .  S
C842        S844   1.806       .  S
S843        H846   1.385       .  S
S844        H845   1.406       .  S
C849        C850   1.425       .  A
C849        C854   1.434       .  A
C850        C851   1.403       .  A
C850        H859   1.078       .  S
C851        C852   1.406       .  A
C851        S855   1.800       .  S
C852        C853   1.392       .  A
C853        C854   1.399       .  A
C853        H860   1.084       .  S
C854        S856   1.793       .  S
S855        H858   1.407       .  S
C861        C866   1.438       .  A
C862        C863   1.396       .  A
C862        H871   1.074       .  S
C863        S867   1.804       .  S
C864        C865   1.402       .  A
C865        C866   1.407       .  A
C865        H872   1.082       .  S
C866        S868   1.812       .  S
S867        H870   1.408   1_455  S
S868        H869   1.407       .  S
C873       C1043   1.557       .  S
C873       C1276   1.573   1_554  S
C873       C1067   1.582       .  S
C873       C1297   1.586   1_554  S
C874       C1228   1.568   1_554  S
C874       C1019   1.573       .  S
C874       C1249   1.581   1_554  S
C874       C1046   1.585       .  S
Zn875       O879   1.948       .  S
Zn875       O880   1.988       .  S
Zn875       O884   1.977       .  S
Zn875       O891   2.018       .  S
Zn876       O879   1.955       .  S
Zn876       O881   2.012       .  S
Zn876       O883   2.013       .  S
Zn876       O887   2.022       .  S
Zn877       O879   1.968       .  S
Zn877       O882   2.029       .  S
Zn877       O885   2.017       .  S
Zn877       O888   2.025       .  S
Zn878       O879   1.940       .  S
Zn878       O886   2.010       .  S
Zn878       O889   2.005       .  S
Zn878       O890   2.012       .  S
O880        C892   1.271       .  A
O881        C893   1.273       .  A
O882        C894   1.275       .  A
O883        C892   1.271       .  A
O884        C894   1.269       .  A
O885        C893   1.272       .  A
O886        C895   1.275       .  A
O887        C896   1.274       .  A
O888        C895   1.274       .  A
O889        C896   1.272       .  A
O890        C897   1.272       .  A
O891        C897   1.272       .  A
C892       C1007   1.487       .  S
C893        C998   1.470       .  S
C894       C1055   1.464       .  S
C895       C1070   1.481       .  S
C896       C1022   1.468       .  S
C897        C983   1.481       .  S
C898        C947   1.578       .  S
C898        C962   1.582       .  S
C898        C974   1.580       .  S
C898        C995   1.572       .  S
C899        C923   1.583       .  S
C899        C935   1.580       .  S
C899        C950   1.595       .  S
C899        C986   1.574       .  S
Zn900      O1558   1.960   1_544  S
Zn900       O909   2.014       .  S
Zn900      O1352   2.025       .  S
Zn901       O906   2.032       .  S
Zn901      O1126   2.028       .  S
Zn901       O912   2.010       .  S
Zn902      O1340   1.964   1_545  S
Zn902       O907   2.039       .  S
Zn902      O1349   2.030       .  S
Zn903       O904   1.962       .  S
Zn903       O911   2.016       .  S
Zn903       O914   2.028       .  S
Zn903      O1133   2.016       .  S
O904      Zn1554   1.956       .  S
O904      Zn1338   1.964       .  S
O905        C917   1.274       .  A
O906       C1354   1.275       .  A
O907        C919   1.277       .  A
O908      Zn1119   2.031   1_554  S
O908       C1353   1.274       .  A
O909       C1137   1.272   1_554  A
O910        C918   1.274       .  A
O911        C920   1.275       .  A
O912        C921   1.273       .  A
O913      Zn1338   2.025       .  S
O913        C920   1.274       .  A
O915      Zn1121   2.018   1_554  S
O915        C922   1.273       .  A
O916      Zn1336   2.019       .  S
O916        C922   1.272       .  A
C917       O1344   1.275   1_545  A
C917        C971   1.478       .  S
C918       O1342   1.276   1_545  A
C918        C959   1.493       .  S
C919       O1127   1.273       .  A
C919       C1082   1.495       .  S
C920        C926   1.492       .  S
C921       C1034   1.477       .  S
C922        C938   1.469       .  S
C923        C924   1.424       .  A
C923        C928   1.443       .  A
C924        C925   1.397       .  A
C924        H933   1.084       .  S
C925        C926   1.409       .  A
C925       S1365   1.803       .  S
C926        C927   1.401       .  A
C927        C928   1.402       .  A
C927        H934   1.084       .  S
C928        S930   1.807       .  S
S929       C1361   1.803   1_545  S
S929        H932   1.408       .  S
S930        H931   1.399       .  S
C935        C936   1.423       .  A
C935        C940   1.440       .  A
C936        C937   1.402       .  A
C936        H945   1.076       .  S
C937        C938   1.404       .  A
C937       S1377   1.807       .  S
C938        C939   1.391       .  A
C939        C940   1.401       .  A
C939        H946   1.084       .  S
C940        S942   1.807       .  S
S941       C1373   1.805   1_545  S
S941        H944   1.405       .  S
S942        H943   1.407       .  S
C947       C1384   1.413   1_545  A
C947        C952   1.427       .  A
C948       C1383   1.414       .  A
C948        C949   1.405       .  A
C948        H957   1.074       .  S
C949        C950   1.429       .  A
C949        S953   1.806       .  S
C950        C951   1.418       .  A
C951       C1388   1.402       .  A
C951        H958   1.075       .  S
C952       C1387   1.403   1_545  A
C952        S954   1.808       .  S
S953        H956   1.408       .  S
S954        H955   1.408       .  S
C959       C1396   1.404   1_545  A
C959        C964   1.409       .  A
C960       C1395   1.404       .  A
C960        C961   1.412       .  A
C960        H969   1.083       .  S
C961       C1398   1.437       .  A
C961        S965   1.812       .  S
C962       C1397   1.438   1_545  A
C962        C963   1.417       .  A
C963        C964   1.395       .  A
C963        H970   1.075       .  S
C964        S966   1.804       .  S
S965        H968   1.407       .  S
S966        H967   1.408       .  S
C971        C972   1.394       .  A
C971       C1412   1.406   1_545  A
C972        C973   1.404       .  A
C972        H981   1.084       .  S
C973        C974   1.445       .  A
C973        S977   1.814       .  S
C974        C975   1.420   1_545  A
C975       C1412   1.401       .  A
C975       H1418   1.080       .  S
C976       C1407   1.406       .  A
C976       C1411   1.401       .  A
C976        S978   1.805       .  S
S977        H980   1.407       .  S
S978        H979   1.406       .  S
H982       C1411   1.081       .  S
C983        C984   1.396       .  A
C983        C988   1.404       .  A
C984        C985   1.401       .  A
C984        H993   1.085       .  S
C985        C986   1.445       .  A
C985        S989   1.806       .  S
C986        C987   1.426       .  A
C987        C988   1.397       .  A
C987        H994   1.083       .  S
C988        S990   1.803       .  S
S989        H992   1.397       .  S
S990        H991   1.407       .  S
C995        C996   1.420       .  A
C995       C1000   1.437       .  A
C996        C997   1.393       .  A
C996       H1005   1.077       .  S
C997        C998   1.401       .  A
C997       S1001   1.804       .  S
C998        C999   1.396       .  A
C999       C1000   1.407       .  A
C999       H1006   1.083       .  S
C1000      S1002   1.809       .  S
S1001      H1004   1.407       .  S
S1002      H1003   1.407       .  S
C1007      C1008   1.400       .  A
C1007      C1012   1.410       .  A
C1008      C1009   1.399       .  A
C1008      H1017   1.082       .  S
C1009      C1010   1.436       .  A
C1009      S1013   1.810       .  S
C1010      C1092   1.566       .  S
C1010      C1011   1.416       .  A
C1011      C1012   1.396       .  A
C1011      H1018   1.075       .  S
C1012      S1014   1.802       .  S
S1013      H1016   1.407       .  S
S1014      H1015   1.406       .  S
C1019      C1020   1.419       .  A
C1019      C1024   1.437       .  A
C1020      C1021   1.400       .  A
C1020      H1029   1.078       .  S
C1021      C1022   1.406       .  A
C1021      S1025   1.804       .  S
C1022      C1023   1.391       .  A
C1023      C1024   1.399       .  A
C1023      H1030   1.084       .  S
C1024      S1026   1.811       .  S
S1025      H1028   1.407       .  S
S1026      H1245   1.407       .  S
H1027      S1244   1.406       .  S
C1031      C1092   1.585       .  S
C1031      C1250   1.425       .  A
C1031      C1036   1.451       .  A
C1032      C1249   1.424   1_554  A
C1032      C1033   1.396   1_655  A
C1032      H1041   1.078       .  S
C1033      C1252   1.401   1_454  A
C1033      S1037   1.805       .  S
C1034      C1251   1.402   1_655  A
C1034      C1035   1.392       .  A
C1035      C1036   1.403       .  A
C1035      H1042   1.086       .  S
C1036      S1038   1.815       .  S
S1038      H1039   1.384       .  S
C1043      C1262   1.409   1_554  A
C1043      C1048   1.431       .  A
C1044      C1261   1.408       .  A
C1044      C1045   1.396       .  A
C1044      H1053   1.077       .  S
C1047      C1048   1.403       .  A
C1047      H1054   1.078       .  S
C1048      S1050   1.815       .  S
S1049      H1052   1.405       .  S
S1050      H1051   1.407       .  S
C1055      C1056   1.391       .  A
C1055      C1060   1.398       .  A
C1056      C1057   1.401       .  A
C1056      H1065   1.086       .  S
C1057      C1058   1.454       .  A
C1057      S1061   1.822       .  S
C1058      C1091   1.574       .  S
C1058      C1059   1.426       .  A
C1059      C1060   1.393       .  A
C1059      H1066   1.081       .  S
C1060      S1062   1.805       .  S
S1061      H1064   1.383       .  S
S1062      H1063   1.406       .  S
C1067      C1068   1.425       .  A
C1067      C1072   1.435       .  A
C1068      C1069   1.403       .  A
C1068      H1077   1.078       .  S
C1069      C1070   1.406       .  A
C1069      S1073   1.799       .  S
C1070      C1071   1.391       .  A
C1071      C1072   1.398       .  A
C1071      H1078   1.083       .  S
C1072      S1074   1.793       .  S
S1073      H1076   1.407       .  S
S1074      H1293   1.407       .  S
H1075      S1292   1.408       .  S
C1079      C1091   1.586       .  S
C1079      C1298   1.415       .  A
C1079      C1084   1.440       .  A
C1080      C1297   1.415   1_554  A
C1080      C1081   1.397       .  A
C1080      H1089   1.074       .  S
C1081      C1300   1.412   1_554  A
C1081      S1085   1.804       .  S
C1082      C1299   1.412       .  A
C1082      C1083   1.402       .  A
C1083      C1084   1.409       .  A
C1083      H1090   1.082       .  S
C1084      S1086   1.814       .  S
S1085      H1088   1.408       .  S
S1086      H1087   1.406       .  S
C1091      C1261   1.557       .  S
C1091      C1285   1.583       .  S
C1092      C1237   1.577       .  S
C1092      C1264   1.584       .  S
Zn1093     O1097   1.947       .  S
Zn1093     O1098   1.988       .  S
Zn1093     O1102   1.974       .  S
Zn1093     O1109   2.018       .  S
Zn1094     O1097   1.957       .  S
Zn1094     O1099   2.014       .  S
Zn1094     O1101   2.013       .  S
Zn1094     O1105   2.022       .  S
Zn1095     O1097   1.967       .  S
Zn1095     O1100   2.021       .  S
Zn1095     O1103   2.013       .  S
Zn1095     O1106   2.023       .  S
Zn1096     O1097   1.940       .  S
Zn1096     O1104   2.014       .  S
Zn1096     O1107   2.005       .  S
Zn1096     O1108   2.010       .  S
O1098      C1110   1.271       .  A
O1099      C1111   1.273       .  A
O1100      C1112   1.274       .  A
O1101      C1110   1.271       .  A
O1102      C1112   1.268       .  A
O1103      C1111   1.271       .  A
O1104      C1113   1.276       .  A
O1105      C1114   1.275       .  A
O1106      C1113   1.273       .  A
O1107      C1114   1.273       .  A
O1108      C1115   1.272       .  A
O1109      C1115   1.272       .  A
C1110      C1225   1.488       .  S
C1111      C1216   1.469       .  S
C1112      C1273   1.462       .  S
C1113      C1288   1.482       .  S
C1114      C1240   1.469       .  S
C1115      C1201   1.482       .  S
C1116      C1165   1.579       .  S
C1116      C1180   1.579       .  S
C1116      C1192   1.581       .  S
C1116      C1213   1.571       .  S
C1117      C1141   1.586       .  S
C1117      C1153   1.582       .  S
C1117      C1168   1.595       .  S
C1117      C1204   1.574       .  S
Zn1118     O1340   1.958   1_545  S
Zn1118     O1127   2.013       .  S
Zn1118     O1570   2.028       .  S
Zn1119     O1124   2.037       .  S
Zn1119     O1130   2.004       .  S
Zn1120     O1558   1.965   1_545  S
Zn1120     O1125   2.039       .  S
Zn1120     O1567   2.028       .  S
Zn1121     O1122   1.963       .  S
Zn1121     O1129   2.022       .  S
Zn1121     O1132   2.026       .  S
O1122     Zn1336   1.957   1_556  S
O1122     Zn1556   1.963       .  S
O1123      C1135   1.273       .  A
O1124      C1572   1.276       .  A
O1125      C1137   1.277       .  A
O1126      C1571   1.274       .  A
O1128      C1136   1.273       .  A
O1129      C1138   1.276       .  A
O1130      C1139   1.272       .  A
O1131     Zn1556   2.029       .  S
O1131      C1138   1.274       .  A
O1133      C1140   1.272       .  A
O1134     Zn1554   2.025       .  S
O1134      C1140   1.272       .  A
C1135      O1562   1.275   1_545  A
C1135      C1189   1.478       .  S
C1136      O1560   1.276   1_545  A
C1136      C1177   1.490       .  S
C1137      C1300   1.495       .  S
C1138      C1144   1.495       .  S
C1139      C1252   1.474       .  S
C1140      C1156   1.471       .  S
C1141      C1142   1.423       .  A
C1141      C1146   1.444       .  A
C1142      C1143   1.398       .  A
C1142      H1151   1.084       .  S
C1143      C1144   1.410       .  A
C1143      S1583   1.803       .  S
C1144      C1145   1.401       .  A
C1145      C1146   1.404       .  A
C1145      H1152   1.084       .  S
C1146      S1148   1.808       .  S
S1147      C1579   1.803   1_545  S
S1147      H1150   1.408       .  S
S1148      H1149   1.399       .  S
C1153      C1154   1.424       .  A
C1153      C1158   1.440       .  A
C1154      C1155   1.402       .  A
C1154      H1163   1.076       .  S
C1155      C1156   1.403       .  A
C1155      S1595   1.805       .  S
C1156      C1157   1.391       .  A
C1157      C1158   1.402       .  A
C1157      H1164   1.083       .  S
C1158      S1160   1.808       .  S
S1159      C1591   1.807   1_545  S
S1159      H1162   1.403       .  S
S1160      H1161   1.407       .  S
C1165      C1602   1.412   1_545  A
C1165      C1170   1.428       .  A
C1166      C1601   1.412       .  A
C1166      C1167   1.404       .  A
C1166      H1175   1.075       .  S
C1167      C1168   1.430       .  A
C1167      S1171   1.806       .  S
C1168      C1169   1.417       .  A
C1169      C1606   1.403       .  A
C1169      H1176   1.075       .  S
C1170      C1605   1.405   1_545  A
C1170      S1172   1.809       .  S
S1171      H1174   1.408       .  S
S1172      H1173   1.407       .  S
C1177      C1614   1.403   1_545  A
C1177      C1182   1.409       .  A
C1178      C1613   1.403       .  A
C1178      C1179   1.411       .  A
C1178      H1187   1.083       .  S
C1179      C1616   1.437       .  A
C1179      S1183   1.811       .  S
C1180      C1615   1.436   1_545  A
C1180      C1181   1.417       .  A
C1181      C1182   1.394       .  A
C1181      H1188   1.075       .  S
C1182      S1184   1.805       .  S
S1183      H1186   1.407       .  S
S1184      H1185   1.407       .  S
C1189      C1190   1.395       .  A
C1189      C1630   1.404   1_545  A
C1190      C1191   1.405       .  A
C1190      H1199   1.083       .  S
C1191      C1192   1.444       .  A
C1191      S1195   1.814       .  S
C1192      C1193   1.420   1_545  A
C1193      C1630   1.400       .  A
C1193      H1636   1.079       .  S
C1194      C1625   1.405       .  A
C1194      C1629   1.400       .  A
C1194      S1196   1.804       .  S
S1195      H1198   1.407       .  S
S1196      H1197   1.406       .  S
H1200      C1629   1.081       .  S
C1201      C1202   1.396       .  A
C1201      C1206   1.405       .  A
C1202      C1203   1.401       .  A
C1202      H1211   1.084       .  S
C1203      C1204   1.444       .  A
C1203      S1207   1.807       .  S
C1204      C1205   1.426       .  A
C1205      C1206   1.398       .  A
C1205      H1212   1.082       .  S
C1206      S1208   1.803       .  S
S1207      H1210   1.397       .  S
S1208      H1209   1.407       .  S
C1213      C1214   1.421       .  A
C1213      C1218   1.436       .  A
C1214      C1215   1.394       .  A
C1214      H1223   1.077       .  S
C1215      C1216   1.402       .  A
C1215      S1219   1.805       .  S
C1216      C1217   1.395       .  A
C1217      C1218   1.406       .  A
C1217      H1224   1.082       .  S
C1218      S1220   1.808       .  S
S1219      H1222   1.406       .  S
S1220      H1221   1.407       .  S
C1225      C1226   1.400       .  A
C1225      C1230   1.410       .  A
C1226      C1227   1.396       .  A
C1226      H1235   1.084       .  S
C1227      C1228   1.440       .  A
C1227      S1231   1.808   1_556  S
C1228      C1229   1.417       .  A
C1229      C1230   1.397       .  A
C1229      H1236   1.075       .  S
C1230      S1232   1.802       .  S
S1231      H1234   1.394       .  S
S1232      H1233   1.406       .  S
C1237      C1238   1.419       .  A
C1237      C1242   1.439       .  A
C1238      C1239   1.400       .  A
C1238      H1247   1.078       .  S
C1239      C1240   1.405       .  A
C1239      S1243   1.805       .  S
C1240      C1241   1.390       .  A
C1241      C1242   1.400       .  A
C1241      H1248   1.083       .  S
C1242      S1244   1.813       .  S
S1243      H1246   1.406       .  S
C1249      C1254   1.449       .  A
C1250      C1251   1.398   1_655  A
C1250      H1259   1.077       .  S
C1251      S1255   1.805       .  S
C1252      C1253   1.392       .  A
C1253      C1254   1.402       .  A
C1253      H1260   1.085       .  S
C1254      S1256   1.811       .  S
S1256      H1257   1.388       .  S
C1261      C1266   1.431       .  A
C1262      C1263   1.396       .  A
C1262      H1271   1.077       .  S
C1265      C1266   1.402       .  A
C1265      H1272   1.078       .  S
C1266      S1268   1.815       .  S
S1267      H1270   1.406       .  S
S1268      H1269   1.407       .  S
C1273      C1274   1.390       .  A
C1273      C1278   1.397       .  A
C1274      C1275   1.400       .  A
C1274      H1283   1.086       .  S
C1275      C1276   1.454       .  A
C1275      S1279   1.823       .  S
C1276      C1277   1.426       .  A
C1277      C1278   1.392       .  A
C1277      H1284   1.081       .  S
C1278      S1280   1.805       .  S
S1279      H1282   1.383       .  S
S1280      H1281   1.406       .  S
C1285      C1286   1.424       .  A
C1285      C1290   1.435       .  A
C1286      C1287   1.403       .  A
C1286      H1295   1.079       .  S
C1287      C1288   1.406       .  A
C1287      S1291   1.799       .  S
C1288      C1289   1.392       .  A
C1289      C1290   1.398       .  A
C1289      H1296   1.084       .  S
C1290      S1292   1.792       .  S
S1291      H1294   1.407       .  S
C1297      C1302   1.438       .  A
C1298      C1299   1.397       .  A
C1298      H1307   1.075       .  S
C1299      S1303   1.804       .  S
C1300      C1301   1.402       .  A
C1301      C1302   1.408       .  A
C1301      H1308   1.082       .  S
C1302      S1304   1.812       .  S
S1303      H1306   1.408       .  S
S1304      H1305   1.407       .  S
C1309      C1479   1.558       .  S
C1309      C1712   1.573   1_554  S
C1309      C1503   1.583       .  S
C1309      C1733   1.587   1_554  S
C1310      C1664   1.569   1_554  S
C1310      C1455   1.575       .  S
C1310      C1685   1.584   1_554  S
C1310      C1482   1.586       .  S
Zn1311     O1315   1.947       .  S
Zn1311     O1316   1.988       .  S
Zn1311     O1320   1.969       .  S
Zn1311     O1327   2.014       .  S
Zn1312     O1315   1.955       .  S
Zn1312     O1317   2.016       .  S
Zn1312     O1319   2.011       .  S
Zn1312     O1323   2.021       .  S
Zn1313     O1315   1.966       .  S
Zn1313     O1318   2.028       .  S
Zn1313     O1321   2.021       .  S
Zn1313     O1324   2.023       .  S
Zn1314     O1315   1.942       .  S
Zn1314     O1322   2.011       .  S
Zn1314     O1325   2.004       .  S
Zn1314     O1326   2.013       .  S
O1316      C1328   1.271       .  A
O1317      C1329   1.273       .  A
O1318      C1330   1.275       .  A
O1319      C1328   1.271       .  A
O1320      C1330   1.268       .  A
O1321      C1329   1.272       .  A
O1322      C1331   1.275       .  A
O1323      C1332   1.274       .  A
O1324      C1331   1.274       .  A
O1325      C1332   1.272       .  A
O1326      C1333   1.272       .  A
O1327      C1333   1.271       .  A
C1328      C1443   1.487       .  S
C1329      C1434   1.472       .  S
C1330      C1491   1.462       .  S
C1331      C1506   1.480       .  S
C1332      C1458   1.468       .  S
C1333      C1419   1.482       .  S
C1334      C1383   1.576       .  S
C1334      C1398   1.579       .  S
C1334      C1410   1.579       .  S
C1334      C1431   1.573       .  S
C1335      C1359   1.587       .  S
C1335      C1371   1.578       .  S
C1335      C1386   1.598       .  S
C1335      C1422   1.575       .  S
Zn1336     O1345   2.011       .  S
Zn1337     O1342   2.040       .  S
Zn1337     O1562   2.038       .  S
Zn1337     O1348   2.012       .  S
Zn1338     O1343   2.040       .  S
Zn1339     O1340   1.966       .  S
Zn1339     O1347   2.022       .  S
Zn1339     O1350   2.030       .  S
Zn1339     O1569   2.027       .  S
O1341      C1353   1.274       .  A
O1343      C1355   1.276       .  A
O1344     Zn1555   2.034   1_554  S
O1345      C1573   1.272   1_554  A
O1346      C1354   1.274       .  A
O1347      C1356   1.276       .  A
O1348      C1357   1.273       .  A
O1349      C1356   1.275   1_545  A
O1351     Zn1557   2.023   1_554  S
O1351      C1358   1.273       .  A
O1352      C1358   1.272   1_545  A
C1353      C1407   1.476       .  S
C1354      C1395   1.490       .  S
C1355      O1563   1.272       .  A
C1355      C1518   1.496       .  S
C1356      C1362   1.495       .  S
C1357      C1470   1.476       .  S
C1358      C1374   1.473       .  S
C1359      C1360   1.425       .  A
C1359      C1364   1.444       .  A
C1360      C1361   1.398       .  A
C1360      H1369   1.084   1_565  S
C1361      C1362   1.409       .  A
C1362      C1363   1.401       .  A
C1363      C1364   1.404       .  A
C1363      H1370   1.084       .  S
C1364      S1366   1.807       .  S
S1365      H1368   1.408       .  S
S1366      H1367   1.398       .  S
C1371      C1372   1.422       .  A
C1371      C1376   1.440       .  A
C1372      C1373   1.402       .  A
C1372      H1381   1.076       .  S
C1373      C1374   1.404       .  A
C1374      C1375   1.392       .  A
C1375      C1376   1.404       .  A
C1375      H1382   1.083       .  S
C1376      S1378   1.809       .  S
S1377      H1380   1.404       .  S
S1378      H1379   1.406       .  S
C1383      C1388   1.427       .  A
C1384      C1385   1.406       .  A
C1384      H1393   1.074       .  S
C1385      C1386   1.430       .  A
C1385      S1389   1.804       .  S
C1386      C1387   1.418       .  A
C1387      H1394   1.075       .  S
C1388      S1390   1.810       .  S
S1389      H1392   1.408       .  S
S1390      H1391   1.407       .  S
C1395      C1400   1.409       .  A
C1396      C1397   1.413       .  A
C1396      H1405   1.082       .  S
C1397      S1401   1.812       .  S
C1398      C1399   1.416       .  A
C1399      C1400   1.392       .  A
C1399      H1406   1.078       .  S
C1400      S1402   1.804       .  S
S1401      H1404   1.407       .  S
S1402      H1403   1.408       .  S
C1407      C1408   1.393       .  A
C1408      C1409   1.402       .  A
C1408      H1417   1.084       .  S
C1409      C1410   1.443       .  A
C1409      S1413   1.813       .  S
C1410      C1411   1.421       .  A
C1412      S1414   1.805       .  S
S1413      H1416   1.407       .  S
S1414      H1415   1.406       .  S
C1419      C1420   1.395       .  A
C1419      C1424   1.405       .  A
C1420      C1421   1.401       .  A
C1420      H1429   1.085       .  S
C1421      C1422   1.448       .  A
C1421      S1425   1.810       .  S
C1422      C1423   1.424       .  A
C1423      C1424   1.398       .  A
C1423      H1430   1.083       .  S
C1424      S1426   1.803       .  S
S1425      H1428   1.395       .  S
S1426      H1427   1.407       .  S
C1431      C1432   1.420       .  A
C1431      C1436   1.437       .  A
C1432      C1433   1.394       .  A
C1432      H1441   1.077       .  S
C1433      C1434   1.402       .  A
C1433      S1437   1.805       .  S
C1434      C1435   1.396       .  A
C1435      C1436   1.407       .  A
C1435      H1442   1.083       .  S
C1436      S1438   1.809       .  S
S1437      H1440   1.407       .  S
S1438      H1439   1.407       .  S
C1443      C1444   1.399       .  A
C1443      C1448   1.410       .  A
C1444      C1445   1.396       .  A
C1444      H1453   1.084       .  S
C1445      C1446   1.440       .  A
C1445      S1449   1.808       .  S
C1446      C1528   1.568       .  S
C1446      C1447   1.417       .  A
C1447      C1448   1.396       .  A
C1447      H1454   1.075       .  S
C1448      S1450   1.802       .  S
S1449      H1452   1.394       .  S
S1450      H1451   1.406       .  S
C1455      C1456   1.419       .  A
C1455      C1460   1.439       .  A
C1456      C1457   1.400       .  A
C1456      H1465   1.078       .  S
C1457      C1458   1.405       .  A
C1457      S1461   1.805       .  S
C1458      C1459   1.390       .  A
C1459      C1460   1.399       .  A
C1459      H1466   1.084       .  S
C1460      S1462   1.812       .  S
S1461      H1464   1.406       .  S
S1462      H1681   1.407       .  S
H1463      S1680   1.407       .  S
C1467      C1528   1.583       .  S
C1467      C1686   1.424       .  A
C1467      C1472   1.449       .  A
C1468      C1685   1.424   1_554  A
C1468      C1469   1.397   1_655  A
C1468      H1477   1.077       .  S
C1469      C1688   1.402   1_454  A
C1469      S1473   1.805       .  S
C1470      C1687   1.401   1_655  A
C1470      C1471   1.393       .  A
C1471      C1472   1.403       .  A
C1471      H1478   1.085       .  S
C1472      S1474   1.811       .  S
S1474      H1475   1.388       .  S
C1479      C1698   1.409   1_554  A
C1479      C1484   1.431       .  A
C1480      C1697   1.409       .  A
C1480      C1481   1.396       .  A
C1480      H1489   1.077       .  S
C1483      C1484   1.403       .  A
C1483      H1490   1.078       .  S
C1484      S1486   1.815       .  S
S1485      H1488   1.406       .  S
S1486      H1487   1.407       .  S
C1491      C1492   1.391       .  A
C1491      C1496   1.397       .  A
C1492      C1493   1.401       .  A
C1492      H1501   1.086       .  S
C1493      C1494   1.454       .  A
C1493      S1497   1.822       .  S
C1494      C1527   1.572       .  S
C1494      C1495   1.426       .  A
C1495      C1496   1.392       .  A
C1495      H1502   1.081       .  S
C1496      S1498   1.805       .  S
S1497      H1500   1.383       .  S
S1498      H1499   1.406       .  S
C1503      C1504   1.425       .  A
C1503      C1508   1.436       .  A
C1504      C1505   1.402       .  A
C1504      H1513   1.078       .  S
C1505      C1506   1.405       .  A
C1505      S1509   1.799       .  S
C1506      C1507   1.392       .  A
C1507      C1508   1.400       .  A
C1507      H1514   1.083       .  S
C1508      S1510   1.796       .  S
S1509      H1512   1.407       .  S
S1510      H1729   1.407       .  S
H1511      S1728   1.407       .  S
C1515      C1527   1.586       .  S
C1515      C1734   1.415       .  A
C1515      C1520   1.439       .  A
C1516      C1733   1.415   1_554  A
C1516      C1517   1.397       .  A
C1516      H1525   1.074       .  S
C1517      C1736   1.413   1_554  A
C1517      S1521   1.804       .  S
C1518      C1735   1.412       .  A
C1518      C1519   1.403       .  A
C1519      C1520   1.409       .  A
C1519      H1526   1.082       .  S
C1520      S1522   1.813       .  S
S1521      H1524   1.408       .  S
S1522      H1523   1.407       .  S
C1527      C1697   1.558       .  S
C1527      C1721   1.584       .  S
C1528      C1673   1.574       .  S
C1528      C1700   1.585       .  S
Zn1529     O1533   1.946       .  S
Zn1529     O1534   1.989       .  S
Zn1529     O1538   1.971       .  S
Zn1529     O1545   2.017       .  S
Zn1530     O1533   1.956       .  S
Zn1530     O1535   2.011       .  S
Zn1530     O1537   2.014       .  S
Zn1530     O1541   2.021       .  S
Zn1531     O1533   1.967       .  S
Zn1531     O1536   2.025       .  S
Zn1531     O1539   2.014       .  S
Zn1531     O1542   2.026       .  S
Zn1532     O1533   1.940       .  S
Zn1532     O1540   2.014       .  S
Zn1532     O1543   2.001       .  S
Zn1532     O1544   2.015       .  S
O1534      C1546   1.271       .  A
O1535      C1547   1.273       .  A
O1536      C1548   1.275       .  A
O1537      C1546   1.271       .  A
O1538      C1548   1.268       .  A
O1539      C1547   1.272       .  A
O1540      C1549   1.275       .  A
O1541      C1550   1.274       .  A
O1542      C1549   1.273       .  A
O1543      C1550   1.272       .  A
O1544      C1551   1.273       .  A
O1545      C1551   1.272       .  A
C1546      C1661   1.487       .  S
C1547      C1652   1.469       .  S
C1548      C1709   1.462       .  S
C1549      C1724   1.483       .  S
C1550      C1676   1.467       .  S
C1551      C1637   1.484       .  S
C1552      C1601   1.576       .  S
C1552      C1616   1.580       .  S
C1552      C1628   1.580       .  S
C1552      C1649   1.570       .  S
C1553      C1577   1.587       .  S
C1553      C1589   1.582       .  S
C1553      C1604   1.598       .  S
C1553      C1640   1.574       .  S
Zn1554     O1563   2.013       .  S
Zn1555     O1560   2.033       .  S
Zn1555     O1566   2.016       .  S
Zn1556     O1561   2.042       .  S
Zn1557     O1558   1.964       .  S
Zn1557     O1565   2.027       .  S
Zn1557     O1568   2.027       .  S
O1559      C1571   1.274       .  A
O1561      C1573   1.277       .  A
O1564      C1572   1.273       .  A
O1565      C1574   1.276       .  A
O1566      C1575   1.273       .  A
O1567      C1574   1.275   1_545  A
O1569      C1576   1.273       .  A
O1570      C1576   1.273   1_545  A
C1571      C1625   1.477       .  S
C1572      C1613   1.492       .  S
C1573      C1736   1.496       .  S
C1574      C1580   1.496       .  S
C1575      C1688   1.478       .  S
C1576      C1592   1.475       .  S
C1577      C1578   1.424       .  A
C1577      C1582   1.445       .  A
C1578      C1579   1.398       .  A
C1578      H1587   1.083   1_565  S
C1579      C1580   1.409       .  A
C1580      C1581   1.401       .  A
C1581      C1582   1.405       .  A
C1581      H1588   1.084       .  S
C1582      S1584   1.808       .  S
S1583      H1586   1.408       .  S
S1584      H1585   1.398       .  S
C1589      C1590   1.423       .  A
C1589      C1594   1.440       .  A
C1590      C1591   1.403       .  A
C1590      H1599   1.076       .  S
C1591      C1592   1.406       .  A
C1592      C1593   1.392       .  A
C1593      C1594   1.404       .  A
C1593      H1600   1.083       .  S
C1594      S1596   1.808       .  S
S1595      H1598   1.405       .  S
S1596      H1597   1.406       .  S
C1601      C1606   1.429       .  A
C1602      C1603   1.405       .  A
C1602      H1611   1.075       .  S
C1603      C1604   1.430       .  A
C1603      S1607   1.806       .  S
C1604      C1605   1.418       .  A
C1605      H1612   1.076       .  S
C1606      S1608   1.811       .  S
S1607      H1610   1.407       .  S
S1608      H1609   1.407       .  S
C1613      C1618   1.410       .  A
C1614      C1615   1.411       .  A
C1614      H1623   1.082       .  S
C1615      S1619   1.813       .  S
C1616      C1617   1.416       .  A
C1617      C1618   1.394       .  A
C1617      H1624   1.076       .  S
C1618      S1620   1.804       .  S
S1619      H1622   1.406       .  S
S1620      H1621   1.407       .  S
C1625      C1626   1.393       .  A
C1626      C1627   1.404       .  A
C1626      H1635   1.084       .  S
C1627      C1628   1.445       .  A
C1627      S1631   1.814       .  S
C1628      C1629   1.420       .  A
C1630      S1632   1.804       .  S
S1631      H1634   1.407       .  S
S1632      H1633   1.406       .  S
C1637      C1638   1.397       .  A
C1637      C1642   1.406       .  A
C1638      C1639   1.402       .  A
C1638      H1647   1.085       .  S
C1639      C1640   1.446       .  A
C1639      S1643   1.809       .  S
C1640      C1641   1.425       .  A
C1641      C1642   1.399       .  A
C1641      H1648   1.083       .  S
C1642      S1644   1.803       .  S
S1643      H1646   1.396       .  S
S1644      H1645   1.407       .  S
C1649      C1650   1.419       .  A
C1649      C1654   1.437       .  A
C1650      C1651   1.393       .  A
C1650      H1659   1.077       .  S
C1651      C1652   1.401       .  A
C1651      S1655   1.804       .  S
C1652      C1653   1.395       .  A
C1653      C1654   1.406       .  A
C1653      H1660   1.082       .  S
C1654      S1656   1.810       .  S
S1655      H1658   1.407       .  S
S1656      H1657   1.406       .  S
C1661      C1662   1.399       .  A
C1661      C1666   1.409       .  A
C1662      C1663   1.396       .  A
C1662      H1671   1.084       .  S
C1663      C1664   1.440       .  A
C1663      S1667   1.808   1_556  S
C1664      C1665   1.417       .  A
C1665      C1666   1.396       .  A
C1665      H1672   1.074       .  S
C1666      S1668   1.802       .  S
S1667      H1670   1.393       .  S
S1668      H1669   1.406       .  S
C1673      C1674   1.419       .  A
C1673      C1678   1.438       .  A
C1674      C1675   1.399       .  A
C1674      H1683   1.078       .  S
C1675      C1676   1.406       .  A
C1675      S1679   1.805       .  S
C1676      C1677   1.390       .  A
C1677      C1678   1.399       .  A
C1677      H1684   1.083       .  S
C1678      S1680   1.812       .  S
S1679      H1682   1.406       .  S
C1685      C1690   1.450       .  A
C1686      C1687   1.397   1_655  A
C1686      H1695   1.078       .  S
C1687      S1691   1.804       .  S
C1688      C1689   1.394       .  A
C1689      C1690   1.404       .  A
C1689      H1696   1.085       .  S
C1690      S1692   1.812       .  S
S1692      H1693   1.386       .  S
C1697      C1702   1.430       .  A
C1698      C1699   1.396       .  A
C1698      H1707   1.076       .  S
C1701      C1702   1.402       .  A
C1701      H1708   1.078       .  S
C1702      S1704   1.814       .  S
S1703      H1706   1.405   1_655  S
S1704      H1705   1.407       .  S
C1709      C1710   1.391       .  A
C1709      C1714   1.397       .  A
C1710      C1711   1.401       .  A
C1710      H1719   1.086       .  S
C1711      C1712   1.453       .  A
C1711      S1715   1.822       .  S
C1712      C1713   1.426       .  A
C1713      C1714   1.392       .  A
C1713      H1720   1.080       .  S
C1714      S1716   1.806       .  S
S1715      H1718   1.382       .  S
S1716      H1717   1.406       .  S
C1721      C1722   1.425       .  A
C1721      C1726   1.434       .  A
C1722      C1723   1.403       .  A
C1722      H1731   1.079       .  S
C1723      C1724   1.406       .  A
C1723      S1727   1.800       .  S
C1724      C1725   1.392       .  A
C1725      C1726   1.399       .  A
C1725      H1732   1.084       .  S
C1726      S1728   1.793       .  S
S1727      H1730   1.407       .  S
C1733      C1738   1.440       .  A
C1734      C1735   1.396       .  A
C1734      H1743   1.074       .  S
C1735      S1739   1.804       .  S
C1736      C1737   1.402       .  A
C1737      C1738   1.410       .  A
C1737      H1744   1.082       .  S
C1738      S1740   1.815       .  S
S1739      H1742   1.408       .  S
S1740      H1741   1.406       .  S
