geometry optimzed in LAMMPS
_audit_creation_date              2020-12-01 
_audit_creation_method            'lammps2cif' 
_symmetry_space_group_name_H-M    'P1' 
_symmetry_Int_Tables_number       1 
_symmetry_cell_setting            triclinic 
loop_ 
_symmetry_equiv_pos_as_xyz 
  x,y,z 
_cell_length_a                    41.61839508 
_cell_length_b                    41.72939788389121 
_cell_length_c                    41.67670174090967 
_cell_angle_alpha                 89.90288431440155 
_cell_angle_beta                  89.8831710130093 
_cell_angle_gamma                 90.27406615936616 
loop_ 
_atom_site_label 
_atom_site_type_symbol 
_atom_site_fract_x 
_atom_site_fract_y 
_atom_site_fract_z 
_atom_site_charge 
C1          C  0.57969250  0.86802020  0.70294190     0.05100
C2          C  0.58632119  0.90097454  0.70593038    -0.11000
C3          C  0.56084883  0.92311875  0.70555451     0.02600
C4          C  0.52917579  0.91197134  0.70194070    -0.09500
C5          C  0.52249548  0.87921562  0.69914486     0.05100
C6          C  0.54787002  0.85741382  0.69999198    -0.08900
H7          H  0.61091597  0.90927244  0.70817748     0.10700
H8          H  0.50957931  0.92897652  0.70132722     0.08300
H9          H  0.54294429  0.83195690  0.69794684     0.08100
C10         C  0.55384092  0.05665042  0.73541690     0.05100
C11         C  0.52166493  0.06590080  0.73999275    -0.11000
C12         C  0.51413538  0.09660214  0.75161799     0.02600
C13         C  0.53942468  0.11808585  0.75793573    -0.09500
C14         C  0.57147021  0.10951443  0.75227008     0.05100
C15         C  0.57871360  0.07866028  0.74137347    -0.08900
H16         H  0.50257873  0.04897514  0.73474089     0.10700
H17         H  0.53433727  0.14160934  0.76762170     0.08300
H18         H  0.60351871  0.07179503  0.73762720     0.08100
C19         C  0.86401753  0.70992468  0.57505035     0.05100
C20         C  0.89690849  0.71352909  0.58174291    -0.11000
C21         C  0.91960284  0.71188360  0.55669922     0.02600
C22         C  0.90898774  0.70628272  0.52512913    -0.09500
C23         C  0.87616869  0.70258180  0.51829452     0.05100
C24         C  0.85389467  0.70480408  0.54340749    -0.08900
H25         H  0.90477470  0.71722281  0.60623053     0.10700
H26         H  0.92639513  0.70469621  0.50582862     0.08300
H27         H  0.82846139  0.70211374  0.53843547     0.08100
C28         C  0.10912151  0.75215094  0.57313045     0.05100
C29         C  0.07747758  0.74301738  0.58084068    -0.11000
C30         C  0.05464258  0.73930214  0.55623113     0.02600
C31         C  0.06341803  0.74578243  0.52426568    -0.09500
C32         C  0.09493844  0.75504700  0.51638891     0.05100
C33         C  0.11772610  0.75727912  0.54101732    -0.08900
H34         H  0.07063215  0.73915769  0.60564697     0.10700
H35         H  0.04528844  0.74441418  0.50569199     0.08300
H36         H  0.14235321  0.76375749  0.53538216     0.08100
C37         C  0.55440612  0.73482680  0.40653135     0.05100
C38         C  0.57478842  0.72498163  0.38134020    -0.11000
C39         C  0.60473601  0.71108079  0.38831057     0.02600
C40         C  0.61390877  0.70693717  0.42045800    -0.09500
C41         C  0.59430157  0.71720638  0.44577250     0.05100
C42         C  0.56471881  0.73138635  0.43848778    -0.08900
H43         H  0.56726456  0.72772795  0.35662568     0.10700
H44         H  0.63658565  0.69542997  0.42571345     0.08300
H45         H  0.54923745  0.73924734  0.45782456     0.08100
C46         C  0.36440136  0.76783777  0.39181365     0.05100
C47         C  0.35433942  0.77101585  0.42369231    -0.11000
C48         C  0.37661766  0.77207513  0.44872862     0.02600
C49         C  0.40939519  0.76853801  0.44158740    -0.09500
C50         C  0.41997006  0.76461599  0.40968787     0.05100
C51         C  0.39718842  0.76442802  0.38472976    -0.08900
H52         H  0.32893404  0.77358313  0.42885648     0.10700
H53         H  0.42678734  0.76913271  0.46088401     0.08300
H54         H  0.40495147  0.76261713  0.35997406     0.08100
C55         C  0.70112875  0.57877256  0.86110220     0.05100
C56         C  0.69561199  0.54672625  0.85232391    -0.11000
C57         C  0.70188665  0.52153971  0.87363420     0.02600
C58         C  0.71417522  0.52879576  0.90406549    -0.09500
C59         C  0.72061188  0.56062234  0.91311656     0.05100
C60         C  0.71385949  0.58573550  0.89158126    -0.08900
H61         H  0.68694825  0.54140755  0.82839805     0.10700
H62         H  0.71853893  0.50960437  0.92103901     0.08300
H63         H  0.71862370  0.61034796  0.89837938     0.08100
C64         C  0.76123666  0.55740815  0.04444537     0.05100
C65         C  0.76590689  0.52531193  0.05405493    -0.11000
C66         C  0.77282533  0.51763719  0.08608075     0.02600
C67         C  0.77435065  0.54234101  0.10862072    -0.09500
C68         C  0.77085497  0.57448010  0.09957933     0.05100
C69         C  0.76370274  0.58206565  0.06748769    -0.08900
H70         H  0.76450630  0.50629981  0.03643933     0.10700
H71         H  0.77903011  0.53662611  0.13356515     0.08300
H72         H  0.76120403  0.60689431  0.06032862     0.08100
O73         O  0.60092020  0.34861104  0.78087555    -0.76500
C74         C  0.67885222  0.39007443  0.83450360     0.84600
O75         O  0.69426884  0.30279619  0.73164429    -0.77600
O76         O  0.73177793  0.30117162  0.84148921    -0.79100
O77         O  0.61842693  0.27806798  0.86790633    -0.78900
O78         O  0.58109805  0.30431987  0.80300353    -0.77500
Zn79       Zn  0.64862657  0.34564128  0.78495002     1.55700
O80         O  0.66433772  0.29825127  0.88665065    -0.78900
Cd81       Cd  0.62249882  0.28230865  0.81886848     1.59700
Cd82       Cd  0.68924785  0.27957100  0.77611296     1.59600
O83         O  0.62420318  0.23688109  0.80042112    -0.78900
O84         O  0.66177352  0.30648110  0.80588743    -1.89400
Cd85       Cd  0.68575763  0.31774849  0.84568345     1.59900
O86         O  0.66763348  0.23452323  0.76883266    -0.78800
O87         O  0.68919905  0.36702725  0.85165131    -0.77500
C88         C  0.68285466  0.32955699  0.72217189     0.85000
C89         C  0.57717663  0.33098281  0.78867861     0.84700
O90         O  0.66335906  0.38501080  0.80868652    -0.76500
C91         C  0.63717972  0.28459082  0.89108493     0.85500
O92         O  0.66594836  0.34707796  0.74050163    -0.76500
C93         C  0.64241960  0.22182242  0.78111138     0.85600
C94         C  0.74778836  0.28460582  0.82145233     0.86000
O95         O  0.73530363  0.27348162  0.79574652    -0.79000
O96         O  0.27675482  0.87087984  0.62429443    -0.76500
C97         C  0.33263016  0.79476851  0.57882983     0.84600
O98         O  0.23403709  0.77233659  0.66811806    -0.77600
O99         O  0.34428332  0.74046715  0.66652184    -0.79100
O100        O  0.36868691  0.85298045  0.69030614    -0.78900
O101        O  0.30179036  0.88963587  0.66742293    -0.77500
Zn102      Zn  0.28309814  0.82302588  0.62498115     1.55700
O103        O  0.38662238  0.80908381  0.66625549    -0.78900
Cd104      Cd  0.31937974  0.84810114  0.68776240     1.59700
Cd105      Cd  0.27825007  0.78010416  0.69097684     1.59600
O106        O  0.30166341  0.84527908  0.73344570    -0.78900
O107        O  0.30572583  0.80940847  0.66332334    -1.89400
Cd108      Cd  0.34541570  0.78666189  0.65045350     1.59900
O109        O  0.27031297  0.80165370  0.73596637    -0.78800
O110        O  0.34968737  0.78416674  0.60170045    -0.77500
C111        C  0.22294744  0.78389219  0.64199622     0.85000
C112        C  0.28523403  0.89413509  0.64217559     0.84700
O113        O  0.30679386  0.81021186  0.58421294    -0.76500
C114        C  0.39172398  0.83543527  0.68074242     0.85500
O115        O  0.23928027  0.80300484  0.62446732    -0.76500
C116        C  0.28236374  0.82692383  0.74859818     0.85600
C117        C  0.32571900  0.72355891  0.68403702     0.86000
O118        O  0.30022083  0.73499364  0.69670786    -0.79000
C119        C  0.05879684  0.55100326  0.24843530     0.05100
C120        C  0.08436450  0.57308820  0.25092457    -0.11000
C121        C  0.07797375  0.60543957  0.25764558     0.02600
C122        C  0.04619338  0.61551349  0.26222646    -0.09500
C123        C  0.02042268  0.59399826  0.25917389     0.05100
C124        C  0.02702521  0.56194906  0.25153726    -0.08900
H125        H  0.10897621  0.56504122  0.24870035     0.10700
H126        H  0.04173443  0.64015273  0.26903366     0.08300
H127        H  0.00734205  0.54516858  0.24838513     0.08100
C128        C  0.06148111  0.41556603  0.22205261     0.05100
C129        C  0.03005148  0.40382197  0.21739799    -0.11000
C130        C  0.02448046  0.37160538  0.20940924     0.02600
C131        C  0.05082367  0.35114757  0.20638745    -0.09500
C132        C  0.08235003  0.36261420  0.20958624     0.05100
C133        C  0.08779355  0.39488311  0.21763192    -0.08900
H134        H  0.00995047  0.42012133  0.21932452     0.10700
H135        H  0.04692651  0.32603671  0.20092794     0.08300
H136        H  0.11213116  0.40377126  0.22036807     0.08100
O137        O  0.86752775  0.61646666  0.28077108    -0.76500
C138        C  0.78710606  0.57421059  0.32958669     0.84600
O139        O  0.77475687  0.66505421  0.22862162    -0.77600
O140        O  0.73582391  0.66335852  0.34112948    -0.79100
O141        O  0.84914275  0.68624639  0.36527164    -0.78900
O142        O  0.88604359  0.66346430  0.29797175    -0.77500
Zn143      Zn  0.81926816  0.61999728  0.28205657     1.55700
O144        O  0.80508738  0.66251028  0.38434092    -0.78900
Cd145      Cd  0.84439066  0.68359837  0.31602342     1.59700
Cd146      Cd  0.77716391  0.68609869  0.27448858     1.59600
O147        O  0.84156055  0.72955363  0.29922148    -0.78900
O148        O  0.80539596  0.65880821  0.30334517    -1.89400
Cd149      Cd  0.78194038  0.64620187  0.34320303     1.59900
O150        O  0.79742060  0.73233296  0.26894208    -0.78800
O151        O  0.77779243  0.59704415  0.34748923    -0.77500
C152        C  0.78827607  0.63966939  0.21812162     0.85000
C153        C  0.89067657  0.63569353  0.28630397     0.84700
O154        O  0.80242189  0.57965081  0.30360778    -0.76500
C155        C  0.83166155  0.67722856  0.38876005     0.85500
O156        O  0.80478694  0.62163901  0.23640569    -0.76500
C157        C  0.82269482  0.74506424  0.28098271     0.85600
C158        C  0.71896108  0.67923002  0.32120636     0.86000
O159        O  0.73065556  0.68986483  0.29476372    -0.79000
C160        C  0.91468237  0.24358142  0.90855851     0.05100
C161        C  0.90319248  0.24710316  0.94010720    -0.11000
C162        C  0.87114883  0.25562912  0.94604537     0.02600
C163        C  0.85052437  0.25998700  0.91991208    -0.09500
C164        C  0.86172228  0.25715132  0.88826241     0.05100
C165        C  0.89390443  0.24890915  0.88251579    -0.08900
H166        H  0.91962331  0.24413664  0.96002540     0.10700
H167        H  0.82559554  0.26616765  0.92411223     0.08300
H168        H  0.90273544  0.24692946  0.85813010     0.08100
C169        C  0.10615719  0.21644685  0.89651130     0.05100
C170        C  0.11493138  0.20832913  0.92799871    -0.11000
C171        C  0.09189776  0.20547217  0.95226894     0.02600
C172        C  0.05947421  0.21035155  0.94482453    -0.09500
C173        C  0.04996456  0.21774823  0.91327018     0.05100
C174        C  0.07350952  0.22091850  0.88909845    -0.08900
H175        H  0.14001234  0.20444359  0.93375509     0.10700
H176        H  0.04156946  0.20836067  0.96365927     0.08300
H177        H  0.06649394  0.22679193  0.86477940     0.08100
O178        O  0.78582371  0.36491565  0.11721347    -0.76500
C179        C  0.83209038  0.28320319  0.07677938     0.84600
O180        O  0.73423283  0.27393708  0.17047088    -0.77600
O181        O  0.84541508  0.23478186  0.16671019    -0.79100
O182        O  0.87205690  0.34580922  0.18972482    -0.78900
O183        O  0.80901143  0.38525774  0.16066608    -0.77500
Zn184      Zn  0.78621288  0.31712490  0.12284506     1.55700
O185        O  0.89006238  0.30216365  0.16508192    -0.78900
Cd186      Cd  0.82284486  0.34385859  0.18482296     1.59700
Cd187      Cd  0.78050030  0.27729018  0.19032051     1.59600
O188        O  0.80557841  0.34279274  0.23116871    -0.78900
O189        O  0.80891716  0.30452263  0.16144300    -1.89400
Cd190      Cd  0.84814428  0.28036554  0.14848705     1.59900
O191        O  0.77733332  0.29742201  0.23640112    -0.78800
O192        O  0.85113341  0.27501671  0.09919788    -0.77500
C193        C  0.72290447  0.28630885  0.14480745     0.85000
C194        C  0.79515307  0.38888573  0.13361717     0.84700
O195        O  0.80636078  0.29860529  0.08262949    -0.76500
C196        C  0.89505989  0.32781911  0.18097866     0.85500
O197        O  0.74034727  0.30285977  0.12580231    -0.76500
C198        C  0.78913927  0.32319289  0.24810700     0.85600
C199        C  0.82571093  0.21889765  0.18400717     0.86000
O200        O  0.79995249  0.23121403  0.19517323    -0.79000
C201        C  0.36770496  0.19298949  0.07832916     0.05100
C202        C  0.40038209  0.19818923  0.08530927    -0.11000
C203        C  0.42311920  0.19972015  0.06016900     0.02600
C204        C  0.41256307  0.19667226  0.02821312    -0.09500
C205        C  0.37995602  0.19184625  0.02110690     0.05100
C206        C  0.35785115  0.18970634  0.04637859    -0.08900
H207        H  0.40807180  0.20052760  0.11001382     0.10700
H208        H  0.42973360  0.19892898  0.00874397     0.08300
H209        H  0.33269041  0.18527022  0.04122660     0.08100
C210        C  0.60712229  0.25952854  0.07820542     0.05100
C211        C  0.61595008  0.26474272  0.04612316    -0.11000
C212        C  0.59604506  0.25509524  0.02083899     0.02600
C213        C  0.56637412  0.24060881  0.02813041    -0.09500
C214        C  0.55641657  0.23621672  0.06016021     0.05100
C215        C  0.57714940  0.24540498  0.08526669    -0.08900
H216        H  0.63871538  0.27636025  0.04089597     0.10700
H217        H  0.55066894  0.23308314  0.00883578     0.08300
H218        H  0.57000684  0.24168623  0.11000897     0.08100
C219        C  0.24773065  0.89800991  0.85895141     0.05100
C220        C  0.23662581  0.89098605  0.88997795    -0.11000
C221        C  0.23003824  0.91601567  0.91150402     0.02600
C222        C  0.23394758  0.94797413  0.90146765    -0.09500
C223        C  0.24597801  0.95527322  0.87078691     0.05100
C224        C  0.25283624  0.92998526  0.84975686    -0.08900
H225        H  0.23382327  0.86627189  0.89754013     0.10700
H226        H  0.22852220  0.96715930  0.91807110     0.08300
H227        H  0.26301032  0.93499461  0.82631352     0.08100
C228        C  0.20988033  0.91241248  0.04766141     0.05100
C229        C  0.21093686  0.88636303  0.06919370    -0.11000
C230        C  0.20871501  0.89183990  0.10238927     0.02600
C231        C  0.20561322  0.92317373  0.11391042    -0.09500
C232        C  0.20400302  0.94916058  0.09276705     0.05100
C233        C  0.20648846  0.94366196  0.05971921    -0.08900
H234        H  0.21264914  0.86208555  0.06020202     0.10700
H235        H  0.20351182  0.92720570  0.13952831     0.08300
H236        H  0.20526228  0.96374652  0.04324550     0.08100
O237        O  0.36051488  0.12016927  0.77834672    -0.76500
C238        C  0.27794752  0.08494690  0.83238531     0.84600
O239        O  0.26722887  0.17512129  0.73374554    -0.77600
O240        O  0.23584231  0.18062853  0.84695418    -0.79100
O241        O  0.35206202  0.18587280  0.86726914    -0.78900
O242        O  0.38259014  0.16543949  0.79619708    -0.77500
Zn243      Zn  0.31238164  0.12707061  0.78298708     1.55700
O244        O  0.30459363  0.17065358  0.88704033    -0.78900
Cd245      Cd  0.34393789  0.18745225  0.81809935     1.59700
Cd246      Cd  0.27612270  0.19574196  0.77824559     1.59600
O247        O  0.34269881  0.23461043  0.80382817    -0.78900
O248        O  0.30277079  0.16635731  0.80593257    -1.89400
Cd249      Cd  0.27916046  0.15701540  0.84656745     1.59900
O250        O  0.29983354  0.23928319  0.77189532    -0.78800
O251        O  0.27096296  0.10832425  0.85070787    -0.77500
C252        C  0.27654416  0.14842435  0.72230666     0.85000
C253        C  0.38502065  0.13797608  0.78313509     0.84700
O254        O  0.29298363  0.08890278  0.80597986    -0.76500
C255        C  0.33351560  0.17992165  0.89091713     0.85500
O256        O  0.29369426  0.12896500  0.73839642    -0.76500
C257        C  0.32491810  0.25093730  0.78510807     0.85600
C258        C  0.22062810  0.19812960  0.82711132     0.86000
O259        O  0.23192568  0.20557897  0.79962614    -0.79000
C260        C  0.21580698  0.07515063  0.36431923     0.05100
C261        C  0.22132827  0.08064309  0.39712758    -0.11000
C262        C  0.22314130  0.05455520  0.41857632     0.02600
C263        C  0.22018279  0.02313844  0.40655892    -0.09500
C264        C  0.21386729  0.01750730  0.37395918     0.05100
C265        C  0.21212137  0.04370913  0.35306058    -0.08900
H266        H  0.22258102  0.10497771  0.40607059     0.10700
H267        H  0.22195740  0.00298828  0.42288383     0.08300
H268        H  0.20607280  0.03985113  0.32806574     0.08100
C269        C  0.24063378  0.05816528  0.55591029     0.05100
C270        C  0.24247729  0.08458878  0.57687038    -0.11000
C271        C  0.24824159  0.07953387  0.60974924     0.02600
C272        C  0.25274481  0.04836173  0.62135478    -0.09500
C273        C  0.25215913  0.02209269  0.60061229     0.05100
C274        C  0.24577990  0.02713930  0.56799604    -0.08900
H275        H  0.23915297  0.10868809  0.56780260     0.10700
H276        H  0.25740771  0.04465957  0.64668173     0.08300
H277        H  0.24562816  0.00691571  0.55170355     0.08100
O278        O  0.18725294  0.10057910  0.12232945    -0.76500
C279        C  0.13560205  0.17908087  0.08147035     0.84600
O280        O  0.23876662  0.19244322  0.17060769    -0.77600
O281        O  0.12733714  0.23081556  0.17007460    -0.79100
O282        O  0.10192768  0.11825919  0.19537799    -0.78900
O283        O  0.16621966  0.08092178  0.16730812    -0.77500
Zn284      Zn  0.18516895  0.14838870  0.12584892     1.55700
O285        O  0.08310494  0.16219475  0.17186538    -0.78900
Cd286      Cd  0.15110158  0.12226244  0.18997490     1.59700
Cd287      Cd  0.19330887  0.18927903  0.19237058     1.59600
O288        O  0.17001956  0.12428557  0.23528861    -0.78900
O289        O  0.16402094  0.16126277  0.16530108    -1.89400
Cd290      Cd  0.12403506  0.18458168  0.15387770     1.59900
O291        O  0.19915258  0.16929442  0.23844594    -0.78800
O292        O  0.11816604  0.18794904  0.10490569    -0.77500
C293        C  0.24911304  0.17990191  0.14463555     0.85000
C294        C  0.17959233  0.07692625  0.14009347     0.84700
O295        O  0.16206849  0.16446896  0.08598870    -0.76500
C296        C  0.07857135  0.13593121  0.18694794     0.85500
O297        O  0.23096448  0.16348916  0.12629441    -0.76500
C298        C  0.18784414  0.14358422  0.25093775     0.85600
C299        C  0.14776694  0.24744927  0.18563886     0.86000
O300        O  0.17387777  0.23554665  0.19642511    -0.79000
C301        C  0.89204957  0.85941938  0.25462697     0.05100
C302        C  0.88513788  0.89215953  0.25079503    -0.11000
C303        C  0.91035919  0.91478532  0.24945045     0.02600
C304        C  0.94233156  0.90421034  0.25179585    -0.09500
C305        C  0.94941300  0.87169253  0.25598172     0.05100
C306        C  0.92409600  0.84942674  0.25682249    -0.08900
H307        H  0.86038505  0.90003616  0.25004807     0.10700
H308        H  0.96178231  0.92156573  0.25134334     0.08300
H309        H  0.92922773  0.82420458  0.26025434     0.08100
C310        C  0.90943676  0.05030585  0.22598557     0.05100
C311        C  0.94134727  0.06060056  0.22106208    -0.11000
C312        C  0.94833487  0.09248154  0.21277965     0.02600
C313        C  0.92291226  0.11409183  0.20963618    -0.09500
C314        C  0.89093302  0.10405319  0.21316935     0.05100
C315        C  0.88407989  0.07209902  0.22152075    -0.08900
H316        H  0.96070304  0.04343404  0.22300303     0.10700
H317        H  0.92788384  0.13895255  0.20378256     0.08300
H318        H  0.85937794  0.06428162  0.22437778     0.08100
O319        O  0.10374375  0.84931294  0.27416717    -0.76500
C320        C  0.18114403  0.89082989  0.32771505     0.84600
O321        O  0.20009946  0.79853114  0.22975670    -0.77600
O322        O  0.23128679  0.80391302  0.34189977    -0.79100
O323        O  0.11819955  0.77772306  0.36273825    -0.78900
O324        O  0.08398801  0.80488597  0.29642868    -0.77500
Zn325      Zn  0.15221120  0.84524775  0.27810051     1.55700
O326        O  0.16159817  0.80150788  0.38264990    -0.78900
Cd327      Cd  0.12422153  0.78230495  0.31372112     1.59700
Cd328      Cd  0.19304475  0.77823044  0.27523603     1.59600
O329        O  0.12636829  0.73656904  0.29617396    -0.78900
O330        O  0.16365614  0.80656183  0.30156862    -1.89400
Cd331      Cd  0.18469809  0.81926626  0.34234950     1.59900
O332        O  0.17274931  0.73237076  0.26940755    -0.78800
O333        O  0.18644678  0.86812432  0.34732795    -0.77500
C334        C  0.18811603  0.82384931  0.21748909     0.85000
C335        C  0.07998210  0.83154939  0.28210355     0.84700
O336        O  0.16976098  0.88573467  0.29975489    -0.76500
C337        C  0.13527748  0.78628607  0.38654029     0.85500
O338        O  0.16989769  0.84247133  0.23339190    -0.76500
C339        C  0.14636224  0.72040494  0.27976570     0.85600
C340        C  0.24859592  0.78669339  0.32360409     0.86000
O341        O  0.23779235  0.77413908  0.29782044    -0.79000
C342        C  0.41141388  0.41954965  0.74779686     0.05100
C343        C  0.44296865  0.40902974  0.75358114    -0.11000
C344        C  0.44906228  0.37695652  0.76161625     0.02600
C345        C  0.42323005  0.35553365  0.76355204    -0.09500
C346        C  0.39164315  0.36594911  0.75931718     0.05100
C347        C  0.38557196  0.39798769  0.75125843    -0.08900
H348        H  0.46267678  0.42603685  0.75213636     0.10700
H349        H  0.42753754  0.33049634  0.76897015     0.08300
H350        H  0.36112214  0.40598433  0.74758595     0.08100
C351        C  0.39231726  0.60708632  0.70322152     0.05100
C352        C  0.42415747  0.61685535  0.69776334    -0.11000
C353        C  0.44976011  0.59564135  0.70193017     0.02600
C354        C  0.44303611  0.56406796  0.71126693    -0.09500
C355        C  0.41122498  0.55325238  0.71519090     0.05100
C356        C  0.38574035  0.57514045  0.71196159    -0.08900
H357        H  0.42885285  0.64114287  0.68970219     0.10700
H358        H  0.46265595  0.54753911  0.71515717     0.08300
H359        H  0.36110751  0.56717364  0.71498072     0.08100
C360        C  0.76674692  0.38663390  0.36547052     0.05100
C361        C  0.76839733  0.41823920  0.35414493    -0.11000
C362        C  0.76656089  0.44425914  0.37514857     0.02600
C363        C  0.76192505  0.43834497  0.40797562    -0.09500
C364        C  0.75931619  0.40681681  0.41979118     0.05100
C365        C  0.76167230  0.38080495  0.39835861    -0.08900
H366        H  0.77195210  0.42251085  0.32870782     0.10700
H367        H  0.76083327  0.45830608  0.42454536     0.08300
H368        H  0.76063762  0.35642886  0.40729606     0.08100
C369        C  0.73052144  0.41398350  0.55394363     0.05100
C370        C  0.72298906  0.39024342  0.57683801    -0.11000
C371        C  0.71168256  0.39914859  0.60734414     0.02600
C372        C  0.70788938  0.43169382  0.61465509    -0.09500
C373        C  0.71545815  0.45557084  0.59221426     0.05100
C374        C  0.72697015  0.44652165  0.56191916    -0.08900
H375        H  0.72549542  0.36512967  0.57082625     0.10700
H376        H  0.69852058  0.43841913  0.63797320     0.08300
H377        H  0.73277465  0.46478626  0.54428729     0.08100
O378        O  0.61807019  0.69482201  0.59961052    -0.76500
C379        C  0.57938922  0.63844017  0.67474890     0.84600
O380        O  0.67000060  0.73935676  0.69476118    -0.77600
O381        O  0.66392690  0.62793216  0.72716764    -0.79100
O382        O  0.69002824  0.60892156  0.61113127    -0.78900
O383        O  0.66408867  0.67761755  0.57876505    -0.77500
Zn384      Zn  0.62337166  0.69039276  0.64774673     1.55700
O385        O  0.67320842  0.58830394  0.65764562    -0.78900
Cd386      Cd  0.68630032  0.65792031  0.61849234     1.59700
Cd387      Cd  0.69019592  0.69409763  0.68888977     1.59600
O388        O  0.73228798  0.67578555  0.62168686    -0.78900
O389        O  0.66255962  0.66802574  0.65872215    -1.89400
Cd390      Cd  0.65125460  0.62675500  0.67964295     1.59900
O391        O  0.73629757  0.69992342  0.66947056    -0.78800
O392        O  0.60241446  0.61894562  0.67895381    -0.77500
C393        C  0.64425942  0.75119189  0.68325607     0.85000
C394        C  0.63637140  0.69003632  0.57555439     0.84700
O395        O  0.58413985  0.66707616  0.66504046    -0.76500
C396        C  0.68556970  0.58513864  0.62985225     0.85500
O397        O  0.62523090  0.73503638  0.66557825    -0.76500
C398        C  0.74829234  0.69125914  0.64262948     0.85600
C399        C  0.68006993  0.64670686  0.74508203     0.86000
O400        O  0.69288259  0.67247181  0.73433370    -0.79000
C401        C  0.69250649  0.50987671  0.57987168     0.25600
C402        C  0.71008866  0.48974791  0.60048132    -0.22500
C403        C  0.72070820  0.50191148  0.63015262     0.20500
C404        C  0.71284921  0.53303148  0.63954683     0.25600
C405        C  0.69493912  0.55287932  0.61916467    -0.22400
C406        C  0.68527193  0.54130411  0.58903840     0.20500
F407        F  0.66736670  0.55987070  0.56921316    -0.12400
F408        F  0.68091709  0.49865181  0.55158810    -0.14800
F409        F  0.72303864  0.54395037  0.66848736    -0.14800
F410        F  0.73876645  0.48362950  0.65010272    -0.12400
C411        C  0.72575033  0.38931586  0.46679201     0.25600
C412        C  0.75472516  0.40202412  0.45477107    -0.22500
C413        C  0.77745576  0.41451452  0.47639483     0.20500
C414        C  0.77043100  0.41632609  0.50917679     0.25600
C415        C  0.74060595  0.40558916  0.52092893    -0.22400
C416        C  0.71873986  0.39107124  0.49969600     0.20500
F417        F  0.68957307  0.38097855  0.51043363    -0.12400
F418        F  0.70320843  0.37760114  0.44638605    -0.14800
F419        F  0.79214850  0.42992718  0.52932743    -0.14800
F420        F  0.80589902  0.42634993  0.46547310    -0.12400
C421        C  0.49425971  0.63639610  0.70631867     0.25600
C422        C  0.48332905  0.60628521  0.69548022    -0.22500
C423        C  0.50455214  0.58679592  0.67781806     0.20500
C424        C  0.53593427  0.59711511  0.67143028     0.25600
C425        C  0.54638431  0.62749441  0.68160117    -0.22400
C426        C  0.52530727  0.64706072  0.69901100     0.20500
F427        F  0.53518133  0.67610902  0.70994306    -0.12400
F428        F  0.47517486  0.65526457  0.72470196    -0.14800
F429        F  0.55582360  0.57780505  0.65438833    -0.14800
F430        F  0.49469817  0.55817754  0.66578063    -0.12400
C431        C  0.42131164  0.46375692  0.70904486     0.25600
C432        C  0.40631400  0.45297123  0.73725596    -0.22500
C433        C  0.38918285  0.47486206  0.75630730     0.20500
C434        C  0.38893695  0.50756858  0.74825301     0.25600
C435        C  0.40573491  0.51857563  0.72101618    -0.22400
C436        C  0.42081692  0.49614205  0.70086170     0.20500
F437        F  0.43614586  0.50583609  0.67370041    -0.12400
F438        F  0.43738089  0.44293086  0.68989577    -0.14800
F439        F  0.37421264  0.52865466  0.76814239    -0.14800
F440        F  0.37455834  0.46491448  0.78373798    -0.12400
C441        C  0.00847714  0.87169255  0.24233657     0.25600
C442        C  0.98296620  0.86129497  0.26208614    -0.22500
C443        C  0.98977872  0.84151218  0.28855277     0.20500
C444        C  0.02121140  0.83185946  0.29484541     0.25600
C445        C  0.04676181  0.84207891  0.27507217    -0.22400
C446        C  0.04009963  0.86229975  0.24884815     0.20500
F447        F  0.06404693  0.87237626  0.22902664    -0.12400
F448        F  0.00273152  0.89043045  0.21632870    -0.14800
F449        F  0.02670726  0.81325011  0.32101566    -0.14800
F450        F  0.96608931  0.83232964  0.30910494    -0.12400
C451        C  0.91954742  0.97100248  0.26810297     0.25600
C452        C  0.90420764  0.94974628  0.24681471    -0.22500
C453        C  0.88623508  0.96240051  0.22120692     0.20500
C454        C  0.88589072  0.99560010  0.21552606     0.25600
C455        C  0.90359641  0.01646217  0.23533070    -0.22400
C456        C  0.91937108  0.00395098  0.26232114     0.20500
F457        F  0.93580144  0.02366094  0.28241594    -0.12400
F458        F  0.93583332  0.95969882  0.29393021    -0.14800
F459        F  0.87032463  0.00706945  0.18935287    -0.14800
F460        F  0.87104941  0.94253124  0.20034023    -0.12400
C461        C  0.00724028  0.09468641  0.22689081     0.25600
C462        C  0.98189843  0.10325067  0.20628895    -0.22500
C463        C  0.98876532  0.12261299  0.17937132     0.20500
C464        C  0.01995475  0.13375268  0.17360493     0.25600
C465        C  0.04529595  0.12519207  0.19412847    -0.22400
C466        C  0.03864548  0.10530409  0.22071901     0.20500
F467        F  0.06241498  0.09665311  0.24121259    -0.12400
F468        F  0.00155065  0.07668803  0.25349438    -0.14800
F469        F  0.02549861  0.15201812  0.14715251    -0.14800
F470        F  0.96541894  0.13004203  0.15792835    -0.12400
C471        C  0.18392133  0.96528455  0.37892830     0.25600
C472        C  0.20601952  0.98474263  0.36209724    -0.22500
C473        C  0.21906837  0.97327997  0.33304671     0.20500
C474        C  0.21006460  0.94315835  0.32111017     0.25600
C475        C  0.18844302  0.92373380  0.33831789    -0.22400
C476        C  0.17558347  0.93495776  0.36734205     0.20500
F477        F  0.15437142  0.91668096  0.38421228    -0.12400
F478        F  0.16957546  0.97595665  0.40615228    -0.14800
F479        F  0.22344403  0.93240917  0.29343209    -0.14800
F480        F  0.24115221  0.99089147  0.31660613    -0.12400
C481        C  0.17017328  0.12260025  0.30386249     0.25600
C482        C  0.19512565  0.13477969  0.28450168    -0.22500
C483        C  0.22700060  0.13284875  0.29552252     0.20500
C484        C  0.23394346  0.11594153  0.32386938     0.25600
C485        C  0.20902503  0.10141772  0.34158804    -0.22400
C486        C  0.17706917  0.10619873  0.33219024     0.20500
F487        F  0.15268314  0.09222044  0.34889296    -0.12400
F488        F  0.13912639  0.12460637  0.29410531    -0.14800
F489        F  0.26502874  0.11126604  0.33241944    -0.14800
F490        F  0.25154297  0.14433974  0.27727175    -0.12400
C491        C  0.25437358  0.07928972  0.50087826     0.25600
C492        C  0.23359743  0.06193509  0.52121989    -0.22500
C493        C  0.20782292  0.04482343  0.50771163     0.20500
C494        C  0.20375405  0.04371869  0.47448313     0.25600
C495        C  0.22557258  0.05945974  0.45387230    -0.22400
C496        C  0.25041013  0.07804825  0.46740499     0.20500
F497        F  0.27193834  0.09341025  0.44822757    -0.12400
F498        F  0.27966647  0.09572668  0.51329359    -0.14800
F499        F  0.17865123  0.02674058  0.46237046    -0.14800
F500        F  0.18697620  0.02840733  0.52680825    -0.12400
C501        C  0.34579589  0.30342562  0.80384923     0.25600
C502        C  0.33452431  0.28427822  0.77853214    -0.22500
C503        C  0.33659568  0.29579981  0.74685252     0.20500
C504        C  0.35252543  0.32478635  0.74043383     0.25600
C505        C  0.36587400  0.34261653  0.76569115    -0.22400
C506        C  0.36118314  0.33246572  0.79746334     0.20500
F507        F  0.37431226  0.34925789  0.82210296    -0.12400
F508        F  0.34358532  0.29306983  0.83469296    -0.14800
F509        F  0.35766877  0.33383894  0.70953551    -0.14800
F510        F  0.32619757  0.27752865  0.72199206    -0.12400
C511        C  0.28249832  0.11982500  0.63702562     0.25600
C512        C  0.25196418  0.10602297  0.63282986    -0.22500
C513        C  0.22810416  0.11098920  0.65620383     0.20500
C514        C  0.23540611  0.12756540  0.68447227     0.25600
C515        C  0.26676164  0.13884737  0.68983200    -0.22400
C516        C  0.28995588  0.13588527  0.66552835     0.20500
F517        F  0.32040525  0.14662883  0.67035632    -0.12400
F518        F  0.30598912  0.11485818  0.61496027    -0.14800
F519        F  0.21281023  0.12983522  0.70790110    -0.14800
F520        F  0.19866797  0.09722536  0.65291439    -0.12400
C521        C  0.23170005  0.85728268  0.14547154     0.25600
C522        C  0.20557643  0.86553341  0.12583526    -0.22500
C523        C  0.17461111  0.85495436  0.13412911     0.20500
C524        C  0.16936492  0.83886749  0.16309464     0.25600
C525        C  0.19508773  0.83268783  0.18394872    -0.22400
C526        C  0.22652174  0.84057403  0.17428658     0.20500
F527        F  0.25168352  0.83510234  0.19420603    -0.12400
F528        F  0.26171843  0.86789574  0.13812770    -0.14800
F529        F  0.13882152  0.83129384  0.17189937    -0.14800
F530        F  0.14902574  0.86316506  0.11574304    -0.12400
C531        C  0.21784745  0.00760333  0.09576457     0.25600
C532        C  0.19813437  0.98182832  0.10521086    -0.22500
C533        C  0.17243938  0.98745274  0.12643085     0.20500
C534        C  0.16665276  0.01825324  0.13812482     0.25600
C535        C  0.18627097  0.04412347  0.12856933    -0.22400
C536        C  0.21192586  0.03847582  0.10723114     0.20500
F537        F  0.23173547  0.06273113  0.09790944    -0.12400
F538        F  0.24326949  0.00278642  0.07590466    -0.14800
F539        F  0.14113149  0.02290344  0.15790336    -0.14800
F540        F  0.15224280  0.96325827  0.13505887    -0.12400
C541        C  0.24551655  0.00017366  0.83016940     0.25600
C542        C  0.25304500  0.98903076  0.86123458    -0.22500
C543        C  0.26844935  0.01015771  0.88273842     0.20500
C544        C  0.27573971  0.04159854  0.87352703     0.25600
C545        C  0.26885029  0.05226424  0.84234879    -0.22400
C546        C  0.25385139  0.03131210  0.82069004     0.20500
F547        F  0.24660163  0.04127307  0.79053485    -0.12400
F548        F  0.22961210  0.98113443  0.80905819    -0.14800
F549        F  0.29088052  0.06124453  0.89466365    -0.14800
F550        F  0.27776050  0.00008025  0.91226821    -0.12400
C551        C  0.24389666  0.89378300  0.96548581     0.25600
C552        C  0.22179744  0.90948608  0.94545785    -0.22500
C553        C  0.19391743  0.92269396  0.95897904     0.20500
C554        C  0.18902529  0.92173294  0.99215662     0.25600
C555        C  0.21209696  0.90780720  0.01245640    -0.22400
C556        C  0.23909079  0.89295996  0.99876920     0.20500
F557        F  0.26203150  0.87988349  0.01777178    -0.12400
F558        F  0.27139276  0.88149911  0.95308182    -0.14800
F559        F  0.16225861  0.93546325  0.00463467    -0.14800
F560        F  0.17201921  0.93761299  0.94009636    -0.12400
C561        C  0.32657403  0.21724595  0.11462116     0.25600
C562        C  0.34284055  0.18993271  0.10353001    -0.22500
C563        C  0.33021456  0.15944643  0.11042602     0.20500
C564        C  0.30053211  0.15630579  0.12587654     0.25600
C565        C  0.28309950  0.18361397  0.13499300    -0.22400
C566        C  0.29693412  0.21409793  0.13054625     0.20500
F567        F  0.28041532  0.24081979  0.13882607    -0.12400
F568        F  0.33801602  0.24694922  0.10754333    -0.14800
F569        F  0.28793319  0.12655278  0.13043428    -0.14800
F570        F  0.34545810  0.13276948  0.09982897    -0.12400
C571        C  0.34212014  0.20738852  0.97687628     0.25600
C572        C  0.36867358  0.18935580  0.98736046    -0.22500
C573        C  0.38379059  0.16849764  0.96557225     0.20500
C574        C  0.37264689  0.16586232  0.93398060     0.25600
C575        C  0.34590552  0.18356573  0.92381544    -0.22400
C576        C  0.33064132  0.20421835  0.94550049     0.20500
F577        F  0.30498709  0.22183786  0.93605236    -0.12400
F578        F  0.32759997  0.22854174  0.99687033    -0.14800
F579        F  0.38718794  0.14508237  0.91362080    -0.14800
F580        F  0.40861670  0.14981637  0.97517222    -0.12400
C581        C  0.48112183  0.18574766  0.05203684     0.25600
C582        C  0.45788024  0.20560883  0.06629860    -0.22500
C583        C  0.46815832  0.23316600  0.08286221     0.20500
C584        C  0.50076663  0.24199654  0.08294457     0.25600
C585        C  0.52359276  0.22340511  0.06647487    -0.22400
C586        C  0.51360763  0.19457808  0.05208907     0.20500
F587        F  0.53523620  0.17560805  0.03689055    -0.12400
F588        F  0.47214835  0.15833714  0.03691145    -0.14800
F589        F  0.50961076  0.27007060  0.09685001    -0.14800
F590        F  0.44636393  0.25292039  0.09672464    -0.12400
C591        C  0.67194643  0.30585854  0.12040168     0.25600
C592        C  0.68896428  0.28102211  0.13555914    -0.22500
C593        C  0.67500508  0.25029074  0.13717216     0.20500
C594        C  0.64612006  0.24381125  0.12102205     0.25600
C595        C  0.63077143  0.26804403  0.10335915    -0.22400
C596        C  0.64308358  0.29943912  0.10455048     0.20500
F597        F  0.62838051  0.32341251  0.08819410    -0.12400
F598        F  0.68423617  0.33606344  0.11937838    -0.14800
F599        F  0.63495913  0.21321830  0.11988166    -0.14800
F600        F  0.69091042  0.22583112  0.15149653    -0.12400
C601        C  0.86229072  0.13751953  0.17361657     0.25600
C602        C  0.86563283  0.12751666  0.20559264    -0.22500
C603        C  0.85075806  0.14517047  0.23012698     0.20500
C604        C  0.83479310  0.17387019  0.22289682     0.25600
C605        C  0.83410431  0.18530421  0.19113232    -0.22400
C606        C  0.84678105  0.16620079  0.16644413     0.20500
F607        F  0.84600172  0.17641962  0.13549051    -0.12400
F608        F  0.87667698  0.12090889  0.14959501    -0.14800
F609        F  0.82304026  0.19203092  0.24719067    -0.14800
F610        F  0.85434693  0.13624577  0.26124344    -0.12400
C611        C  0.75381470  0.32962878  0.29688339     0.25600
C612        C  0.78435146  0.33127570  0.28236723    -0.22500
C613        C  0.81008353  0.34469344  0.29967796     0.20500
C614        C  0.80476415  0.35920579  0.32934082     0.25600
C615        C  0.77359139  0.36093867  0.34211472    -0.22400
C616        C  0.74839791  0.34470577  0.32655155     0.20500
F617        F  0.71809519  0.34606323  0.33855264    -0.12400
F618        F  0.72867076  0.31626713  0.28101317    -0.14800
F619        F  0.82953119  0.37441106  0.34418601    -0.14800
F620        F  0.84015033  0.34543792  0.28693989    -0.12400
C621        C  0.10564893  0.21299379  0.04181791     0.25600
C622        C  0.12449439  0.18577488  0.04834121    -0.22500
C623        C  0.13189348  0.16471203  0.02305757     0.20500
C624        C  0.12078968  0.17081114  0.99195708     0.25600
C625        C  0.10215816  0.19810000  0.98549906    -0.22400
C626        C  0.09467047  0.21910322  0.01069402     0.20500
F627        F  0.07762090  0.24616677  0.00493221    -0.12400
F628        F  0.09860454  0.23426974  0.06539590    -0.14800
F629        F  0.12780504  0.14975717  0.96816997    -0.14800
F630        F  0.14914226  0.13772697  0.02857168    -0.12400
C631        C  0.18787729  0.23295961  0.86190138     0.25600
C632        C  0.18915045  0.21014406  0.83731284    -0.22500
C633        C  0.16087827  0.19432219  0.82783390     0.20500
C634        C  0.13232060  0.19873201  0.84519786     0.25600
C635        C  0.13195076  0.21912891  0.87206121    -0.22400
C636        C  0.15940468  0.23769747  0.87893260     0.20500
F637        F  0.15935090  0.25849067  0.90397054    -0.12400
F638        F  0.21492347  0.24877867  0.87107998    -0.14800
F639        F  0.10615738  0.18065547  0.83785374    -0.14800
F640        F  0.16172198  0.17235808  0.80385612    -0.12400
C641        C  0.84213895  0.28961484  0.98651113     0.25600
C642        C  0.85963348  0.26167547  0.97933904    -0.22500
C643        C  0.86666962  0.24012513  0.00435069     0.20500
C644        C  0.85738780  0.24688898  0.03594720     0.25600
C645        C  0.84042292  0.27511041  0.04314373    -0.22400
C646        C  0.83240113  0.29608861  0.01798154     0.20500
F647        F  0.81635362  0.32369623  0.02401007    -0.12400
F648        F  0.83558343  0.31146557  0.96327327    -0.14800
F649        F  0.86456128  0.22552963  0.05945123    -0.14800
F650        F  0.88216420  0.21224304  0.99815005    -0.12400
C651        C  0.00409788  0.25150346  0.89345988     0.25600
C652        C  0.01530670  0.22244783  0.90640242    -0.22500
C653        C  0.99284594  0.19900044  0.91601380     0.20500
C654        C  0.95992292  0.20528952  0.91481527     0.25600
C655        C  0.94878610  0.23499217  0.90371485    -0.22400
C656        C  0.97100598  0.25772662  0.89213119     0.20500
F657        F  0.96077043  0.28676357  0.88167851    -0.12400
F658        F  0.02517454  0.27471786  0.88428658    -0.14800
F659        F  0.93883116  0.18281853  0.92567837    -0.14800
F660        F  0.00289691  0.17031327  0.92757746    -0.12400
C661        C  0.80155314  0.51585712  0.33055307     0.25600
C662        C  0.78070994  0.54066910  0.33980740    -0.22500
C663        C  0.75462832  0.53332258  0.36022194     0.20500
C664        C  0.74980771  0.50201302  0.37145717     0.25600
C665        C  0.77109118  0.47741860  0.36277355    -0.22400
C666        C  0.79695058  0.48468708  0.34210418     0.20500
F667        F  0.81858808  0.46181769  0.33396588    -0.12400
F668        F  0.82726822  0.52193055  0.31134054    -0.14800
F669        F  0.72397004  0.49564139  0.39040722    -0.14800
F670        F  0.73345242  0.55636766  0.36901650    -0.12400
C671        C  0.84253676  0.79834379  0.29881262     0.25600
C672        C  0.83187735  0.77855664  0.27365356    -0.22500
C673        C  0.83650958  0.78872125  0.24176473     0.20500
C674        C  0.85404622  0.81687224  0.23524197     0.25600
C675        C  0.86655342  0.83534344  0.26052826    -0.22400
C676        C  0.85965434  0.82649365  0.29229573     0.20500
F677        F  0.87192263  0.84373035  0.31706198    -0.12400
F678        F  0.83826103  0.78919859  0.32982923    -0.14800
F679        F  0.86106214  0.82469369  0.20437755    -0.14800
F680        F  0.82699693  0.76981333  0.21703708    -0.12400
C681        C  0.12475524  0.32425302  0.22748487     0.25600
C682        C  0.10857093  0.33999297  0.20247369    -0.22500
C683        C  0.11109167  0.32808696  0.17109861     0.20500
C684        C  0.12648818  0.29905744  0.16531523     0.25600
C685        C  0.13994374  0.28154465  0.19078467    -0.22400
C686        C  0.14061678  0.29517922  0.22162095     0.20500
F687        F  0.15351112  0.27878631  0.24658887    -0.12400
F688        F  0.12236028  0.33526578  0.25801603    -0.14800
F689        F  0.12620943  0.28685436  0.13511367    -0.14800
F690        F  0.09572267  0.34299378  0.14656732    -0.12400
C691        C  0.95432340  0.32861139  0.16959572     0.25600
C692        C  0.92838428  0.33747034  0.18928681    -0.22500
C693        C  0.93445473  0.35672587  0.21640445     0.20500
C694        C  0.96564147  0.36735173  0.22327919     0.25600
C695        C  0.99142298  0.35941346  0.20293761    -0.22400
C696        C  0.98536905  0.33976717  0.17608588     0.20500
F697        F  0.00930147  0.33228834  0.15524966    -0.12400
F698        F  0.94952713  0.31017701  0.14320571    -0.14800
F699        F  0.97065851  0.38495758  0.25019761    -0.14800
F700        F  0.91025599  0.36491704  0.23666123    -0.12400
C701        C  0.11213826  0.63831986  0.29358290     0.25600
C702        C  0.10386172  0.62926711  0.26226170    -0.22500
C703        C  0.11478356  0.64785381  0.23622613     0.20500
C704        C  0.13184796  0.67643533  0.24164343     0.25600
C705        C  0.13769151  0.68678918  0.27316818    -0.22400
C706        C  0.12884324  0.66690516  0.29900198     0.20500
F707        F  0.13436927  0.67640534  0.32966315    -0.12400
F708        F  0.10150812  0.62088840  0.31905290    -0.14800
F709        F  0.13963386  0.69553939  0.21637260    -0.14800
F710        F  0.10636393  0.63983570  0.20581852    -0.12400
C711        C  0.97564071  0.63428594  0.25381990     0.25600
C712        C  0.98685329  0.60463053  0.26554312    -0.22500
C713        C  0.96589484  0.58550851  0.28420064     0.20500
C714        C  0.93450022  0.59550723  0.29045532     0.25600
C715        C  0.92369101  0.62525894  0.27920768    -0.22400
C716        C  0.94452180  0.64469964  0.26106197     0.20500
F717        F  0.93437455  0.67335830  0.24950721    -0.12400
F718        F  0.99448867  0.65291948  0.23471321    -0.14800
F719        F  0.91494053  0.57657868  0.30854865    -0.14800
F720        F  0.97605217  0.55758854  0.29742299    -0.12400
C721        C  0.08290397  0.47124823  0.21161086     0.25600
C722        C  0.06587026  0.44962711  0.23134675    -0.22500
C723        C  0.04986230  0.46134626  0.25858739     0.20500
C724        C  0.04922532  0.49416198  0.26498443     0.25600
C725        C  0.06437445  0.51611123  0.24412847    -0.22400
C726        C  0.08215137  0.50431381  0.21795844     0.20500
F727        F  0.09698197  0.52488611  0.19739606    -0.12400
F728        F  0.09842578  0.46060039  0.18504118    -0.14800
F729        F  0.03299645  0.50464079  0.29122768    -0.14800
F730        F  0.03396718  0.44095354  0.27856256    -0.12400
C731        C  0.29536550  0.95345879  0.64145493     0.25600
C732        C  0.27585419  0.92711322  0.63313152    -0.22500
C733        C  0.24765605  0.93250640  0.61533500     0.20500
C734        C  0.23958791  0.96344155  0.60536824     0.25600
C735        C  0.25964506  0.98957578  0.61276945    -0.22400
C736        C  0.28743147  0.98434032  0.63121824     0.20500
F737        F  0.30766355  0.00896274  0.63827303    -0.12400
F738        F  0.32287244  0.94924244  0.65838919    -0.14800
F739        F  0.21190895  0.96792609  0.58879768    -0.14800
F740        F  0.22757495  0.90787369  0.60794670    -0.12400
C741        C  0.34725383  0.67266890  0.66234117     0.25600
C742        C  0.33482568  0.68966528  0.68869753    -0.22500
C743        C  0.33587394  0.67558363  0.71936659     0.20500
C744        C  0.35196425  0.64637073  0.72392733     0.25600
C745        C  0.36678204  0.63096984  0.69783303    -0.22400
C746        C  0.36298669  0.64360107  0.66686970     0.20500
F747        F  0.37702363  0.62909704  0.64131190    -0.12400
F748        F  0.34592603  0.68527692  0.63229722    -0.14800
F749        F  0.35571156  0.63472052  0.75411019    -0.14800
F750        F  0.32420677  0.69150818  0.74522564    -0.12400
C751        C  0.29726955  0.85011799  0.80137726     0.25600
C752        C  0.27345358  0.83688362  0.78139860    -0.22500
C753        C  0.24099454  0.83927594  0.79055015     0.20500
C754        C  0.23244654  0.85716065  0.81774430     0.25600
C755        C  0.25628741  0.87249657  0.83607071    -0.22400
C756        C  0.28873588  0.86776209  0.82846179     0.20500
F757        F  0.31208578  0.88229336  0.84598933    -0.12400
F758        F  0.32883276  0.84774004  0.79342692    -0.14800
F759        F  0.20090216  0.86188103  0.82452205    -0.14800
F760        F  0.21749982  0.82721683  0.77144454    -0.12400
C761        C  0.64835829  0.26328921  0.94616946     0.25600
C762        C  0.62668176  0.27630499  0.92397762    -0.22500
C763        C  0.59456905  0.28111550  0.93331172     0.20500
C764        C  0.58452258  0.27400453  0.96458434     0.25600
C765        C  0.60619760  0.26107475  0.98700979    -0.22400
C766        C  0.63813018  0.25526561  0.97719223     0.20500
F767        F  0.65941126  0.24129771  0.99745935    -0.12400
F768        F  0.67927442  0.25752052  0.93754910    -0.14800
F769        F  0.55388397  0.28104361  0.97320115    -0.14800
F770        F  0.57311625  0.29393730  0.91246273    -0.12400
C771        C  0.53889677  0.36269525  0.75504159     0.25600
C772        C  0.54437831  0.34216760  0.78130709    -0.22500
C773        C  0.51841138  0.33337996  0.80110376     0.20500
C774        C  0.48770961  0.34526661  0.79509304     0.25600
C775        C  0.48207400  0.36554405  0.76860801    -0.22400
C776        C  0.50802012  0.37403620  0.74859597     0.20500
F777        F  0.50341380  0.39259136  0.72222815    -0.12400
F778        F  0.56331294  0.37123043  0.73506718    -0.14800
F779        F  0.46363221  0.33755293  0.81579721    -0.14800
F780        F  0.52286323  0.31411885  0.82700437    -0.12400
C781        C  0.67181966  0.37573673  0.64529215     0.25600
C782        C  0.70292407  0.37527862  0.63219884    -0.22500
C783        C  0.72648652  0.35596385  0.64657574     0.20500
C784        C  0.71953473  0.33904374  0.67494472     0.25600
C785        C  0.68901043  0.34152399  0.68929299    -0.22400
C786        C  0.66493463  0.35910837  0.67353953     0.20500
F787        F  0.63493084  0.36126944  0.68623817    -0.12400
F788        F  0.64851457  0.39385297  0.63160735    -0.14800
F789        F  0.74333164  0.32256184  0.68975878    -0.14800
F790        F  0.75686842  0.35563115  0.63467923    -0.12400
C791        C  0.79974371  0.30341722  0.84361708     0.25600
C792        C  0.78178901  0.27858161  0.82943535    -0.22500
C793        C  0.79474719  0.24751358  0.82846617     0.20500
C794        C  0.82337352  0.24077149  0.84494564     0.25600
C795        C  0.83923137  0.26510789  0.86212922    -0.22400
C796        C  0.82819239  0.29672331  0.85981273     0.20500
F797        F  0.84341829  0.32065400  0.87587540    -0.12400
F798        F  0.78842674  0.33390042  0.84383556    -0.14800
F799        F  0.83384622  0.21006786  0.84675725    -0.14800
F800        F  0.77811848  0.22317859  0.81456582    -0.12400
C801        C  0.75898230  0.45874908  0.08765928     0.25600
C802        C  0.77946704  0.48415377  0.09643738    -0.22500
C803        C  0.80584250  0.47765489  0.11656781     0.20500
C804        C  0.81077282  0.44686493  0.12881035     0.25600
C805        C  0.78988250  0.42159079  0.12065693    -0.22400
C806        C  0.76425938  0.42776118  0.09945320     0.20500
F807        F  0.74358469  0.40400970  0.09090163    -0.12400
F808        F  0.73309763  0.46406970  0.06864143    -0.14800
F809        F  0.83650056  0.44169715  0.14809507    -0.14800
F810        F  0.82724241  0.50112238  0.12411008    -0.12400
C811        C  0.75266010  0.61826823  0.13687348     0.25600
C812        C  0.77735453  0.59906361  0.12435578    -0.22500
C813        C  0.80713269  0.59832376  0.14011000     0.20500
C814        C  0.81112815  0.61349335  0.16958096     0.25600
C815        C  0.78546250  0.63004234  0.18396383    -0.22400
C816        C  0.75675492  0.63389611  0.16651463     0.20500
F817        F  0.73182144  0.65041821  0.17929274    -0.12400
F818        F  0.72379391  0.61963422  0.12185301    -0.14800
F819        F  0.83979067  0.61061346  0.18483763    -0.14800
F820        F  0.83167732  0.58063649  0.12806771    -0.12400
C821        C  0.71911892  0.62211336  0.82319030     0.25600
C822        C  0.69410839  0.60402489  0.83712768    -0.22500
C823        C  0.66322832  0.60552160  0.82367920     0.20500
C824        C  0.65818393  0.62189951  0.79492267     0.25600
C825        C  0.68392721  0.63717987  0.77906854    -0.22400
C826        C  0.71402299  0.63875092  0.79431889     0.20500
F827        F  0.73920272  0.65367420  0.77979486    -0.12400
F828        F  0.74913855  0.62113038  0.83580538    -0.14800
F829        F  0.62842581  0.62131447  0.78158749    -0.14800
F830        F  0.63841459  0.58910487  0.83725042    -0.12400
C831        C  0.71899639  0.46384020  0.86980269     0.25600
C832        C  0.69588618  0.48770646  0.86392481    -0.22500
C833        C  0.66711818  0.47903857  0.84836262     0.20500
C834        C  0.66176895  0.44740830  0.83860290     0.25600
C835        C  0.68473333  0.42354873  0.84477200    -0.22400
C836        C  0.71332863  0.43205376  0.86061878     0.20500
F837        F  0.73634709  0.40979997  0.86625158    -0.12400
F838        F  0.74758797  0.47142668  0.88353866    -0.14800
F839        F  0.63364063  0.43996055  0.82386245    -0.14800
F840        F  0.64372551  0.50103167  0.84325230    -0.12400
C841        C  0.76322242  0.55121345  0.95391230     0.25600
C842        C  0.73448826  0.56650036  0.94531849    -0.22500
C843        C  0.71708815  0.58309430  0.96893527     0.20500
C844        C  0.72685432  0.58200282  0.00117344     0.25600
C845        C  0.75422264  0.56437505  0.01012030    -0.22400
C846        C  0.77308081  0.55029034  0.98591324     0.20500
F847        F  0.80051221  0.53449327  0.99344162    -0.12400
F848        F  0.78098134  0.53581551  0.93137690    -0.14800
F849        F  0.70820496  0.59603810  0.02385792    -0.14800
F850        F  0.68932015  0.59817026  0.96120321    -0.12400
C851        C  0.29490161  0.75072062  0.33655498     0.25600
C852        C  0.28216202  0.78172175  0.33347487    -0.22500
C853        C  0.29988861  0.80808781  0.34487028     0.20500
C854        C  0.32867092  0.80342913  0.36119076     0.25600
C855        C  0.34014205  0.77235807  0.36658950    -0.22400
C856        C  0.32370110  0.74602721  0.35337482     0.20500
F857        F  0.33405781  0.71576126  0.35910979    -0.12400
F858        F  0.27797984  0.72488832  0.32611361    -0.14800
F859        F  0.34398983  0.82908338  0.37424364    -0.14800
F860        F  0.28826963  0.83831187  0.34189613    -0.12400
C861        C  0.34353326  0.80273575  0.48864934     0.25600
C862        C  0.36547681  0.77795964  0.48207857    -0.22500
C863        C  0.37634195  0.75874012  0.50750135     0.20500
C864        C  0.36560534  0.76416741  0.53880574     0.25600
C865        C  0.34347179  0.78884030  0.54542319    -0.22400
C866        C  0.33250589  0.80799534  0.51991324     0.20500
F867        F  0.31174549  0.83243199  0.52523353    -0.12400
F868        F  0.33333420  0.82250646  0.46488249    -0.14800
F869        F  0.37652174  0.74472556  0.56252812    -0.14800
F870        F  0.39675509  0.73406091  0.50197099    -0.12400
C871        C  0.63654977  0.71810616  0.48901046     0.25600
C872        C  0.60451464  0.71216089  0.47970238    -0.22500
C873        C  0.58272596  0.70025845  0.50284821     0.20500
C874        C  0.59284451  0.69410819  0.53427228     0.25600
C875        C  0.62513629  0.69878129  0.54303512    -0.22400
C876        C  0.64682513  0.71102930  0.52015302     0.20500
F877        F  0.67796613  0.71669386  0.52809243    -0.12400
F878        F  0.65796900  0.73115967  0.46806406    -0.14800
F879        F  0.57132618  0.68209736  0.55573169    -0.14800
F880        F  0.55191892  0.69312043  0.49480930    -0.12400
C881        C  0.63956749  0.66937833  0.36371666     0.25600
C882        C  0.62760682  0.70079684  0.36297529    -0.22500
C883        C  0.64251296  0.72347590  0.34273309     0.20500
C884        C  0.67104700  0.71576034  0.32636096     0.25600
C885        C  0.68502849  0.68535575  0.33031369    -0.22400
C886        C  0.66801238  0.66176194  0.34768978     0.20500
F887        F  0.67998397  0.63168411  0.35076070    -0.12400
F888        F  0.62497639  0.64665608  0.38210792    -0.14800
F889        F  0.68654373  0.73889213  0.30932251    -0.14800
F890        F  0.63125240  0.75391533  0.34130181    -0.12400
C891        C  0.51026519  0.77433089  0.41620651     0.25600
C892        C  0.52123473  0.74653123  0.40064800    -0.22500
C893        C  0.49895272  0.72736305  0.38395562     0.20500
C894        C  0.46603209  0.73434183  0.38517457     0.25600
C895        C  0.45486567  0.76062019  0.40308722    -0.22400
C896        C  0.47745787  0.78131808  0.41739052     0.20500
F897        F  0.46764613  0.80779117  0.43352228    -0.12400
F898        F  0.53127739  0.79398347  0.43157135    -0.14800
F899        F  0.44492489  0.71391664  0.37101562    -0.14800
F900        F  0.50868291  0.70032535  0.36878314    -0.12400
C901        C  0.12362717  0.79056140  0.47669289     0.25600
C902        C  0.10411943  0.76350888  0.48282489    -0.22500
C903        C  0.09405013  0.74457415  0.45672212     0.20500
C904        C  0.10370430  0.75221855  0.42540314     0.25600
C905        C  0.12419951  0.77857325  0.41953182    -0.22400
C906        C  0.13390723  0.79770602  0.44556020     0.20500
F907        F  0.15280601  0.82392873  0.44088104    -0.12400
F908        F  0.13226246  0.81069182  0.50078576    -0.14800
F909        F  0.09374288  0.73315476  0.40095704    -0.14800
F910        F  0.07571201  0.71799249  0.46151012    -0.12400
C911        C  0.14159667  0.79157931  0.60349460     0.25600
C912        C  0.13343019  0.75940510  0.59787289    -0.22500
C913        C  0.15293362  0.73506716  0.61051407     0.20500
C914        C  0.18118257  0.74292516  0.62720955     0.25600
C915        C  0.19038262  0.77519643  0.63090217    -0.22400
C916        C  0.16988243  0.79941816  0.61970381     0.20500
F917        F  0.17807558  0.83076855  0.62315085    -0.12400
F918        F  0.12327113  0.81544097  0.59115806    -0.14800
F919        F  0.20094570  0.71910346  0.63711993    -0.14800
F920        F  0.14597822  0.70384673  0.60445642    -0.12400
C921        C  0.83402792  0.68037903  0.61746600     0.25600
C922        C  0.83947061  0.70908237  0.60063263    -0.22500
C923        C  0.81693356  0.73395401  0.60291998     0.20500
C924        C  0.78821621  0.72928811  0.61988221     0.25600
C925        C  0.78161116  0.69959440  0.63436874    -0.22400
C926        C  0.80510094  0.67555205  0.63401844     0.20500
F927        F  0.79886836  0.64649675  0.64742958    -0.12400
F928        F  0.85525335  0.65588300  0.61509273    -0.14800
F929        F  0.76552489  0.75255890  0.61948562    -0.14800
F930        F  0.82156996  0.76169699  0.58645014    -0.12400
C931        C  0.84335513  0.67066988  0.47901556     0.25600
C932        C  0.86499950  0.69596994  0.48507804    -0.22500
C933        C  0.87554980  0.71506634  0.45927006     0.20500
C934        C  0.86469460  0.70904388  0.42807850     0.25600
C935        C  0.84281398  0.68386811  0.42197800    -0.22400
C936        C  0.83228928  0.66475518  0.44787716     0.20500
F937        F  0.81196369  0.63968364  0.44303047    -0.12400
F938        F  0.83350895  0.65105471  0.50317866    -0.14800
F939        F  0.87513747  0.72840574  0.40396276    -0.14800
F940        F  0.89574664  0.74019318  0.46434857    -0.12400
C941        C  0.97655257  0.69353846  0.55133627     0.25600
C942        C  0.95450178  0.71633119  0.56271615    -0.22500
C943        C  0.96624040  0.74489922  0.57639226     0.20500
C944        C  0.99934505  0.75148675  0.57653641     0.30000
C945        C  0.02106513  0.72961875  0.56302533    -0.22400
C946        C  0.00951310  0.70020245  0.55135779     0.20500
F947        F  0.03013871  0.67854539  0.53859148    -0.12400
F948        F  0.96600919  0.66527699  0.53903591    -0.14800
F949        F  0.00997918  0.78020349  0.58762179    -0.14800
F950        F  0.94555117  0.76747083  0.58730618    -0.12400
C951        C  0.46949115  0.13718849  0.74929669     0.25600
C952        C  0.48018038  0.10630267  0.75787031    -0.22500
C953        C  0.45850575  0.08543474  0.77364051     0.20500
C954        C  0.42719881  0.09537957  0.78092383     0.25600
C955        C  0.41719483  0.12661868  0.77344633    -0.22400
C956        C  0.43857402  0.14737779  0.75751016     0.20500
F957        F  0.42930783  0.17747761  0.74939505    -0.12400
F958        F  0.48884642  0.15752902  0.73258350    -0.14800
F959        F  0.40716066  0.07498844  0.79675720    -0.14800
F960        F  0.46797502  0.05590261  0.78339188    -0.12400
C961        C  0.62314453  0.16781374  0.79737794     0.25600
C962        C  0.63262635  0.18890427  0.77271909    -0.22500
C963        C  0.62649717  0.18056592  0.74063832     0.20500
C964        C  0.60851757  0.15294707  0.73360609     0.25600
C965        C  0.59692463  0.13333202  0.75855741    -0.22400
C966        C  0.60545178  0.14020395  0.79032748     0.20500
F967        F  0.59462922  0.12135443  0.81468216    -0.12400
F968        F  0.62930769  0.17508354  0.82851919    -0.14800
F969        F  0.60009713  0.14681335  0.70275536    -0.14800
F970        F  0.63501767  0.20073995  0.71645375    -0.12400
C971        C  0.61724110  0.83595641  0.67005638     0.25600
C972        C  0.60511421  0.84367956  0.70051682    -0.22500
C973        C  0.61042077  0.82266258  0.72634909     0.20500
C974        C  0.62586484  0.79332829  0.72131934     0.25600
C975        C  0.63559736  0.78455727  0.69029951    -0.22400
C976        C  0.63214646  0.80644383  0.66492182     0.20500
F977        F  0.64135187  0.79829870  0.63474840    -0.12400
F978        F  0.61172465  0.85558987  0.64466222    -0.14800
F979        F  0.62841518  0.77221701  0.74599816    -0.14800
F980        F  0.59804012  0.82930926  0.75574434    -0.12400
C981        C  0.46429249  0.87888606  0.71479480     0.25600
C982        C  0.48906143  0.86777893  0.69475798    -0.22500
C983        C  0.48166341  0.84582140  0.67027806     0.20500
C984        C  0.45017121  0.83499716  0.66603930     0.25600
C985        C  0.42526400  0.84619879  0.68598064    -0.22400
C986        C  0.43268757  0.86838346  0.71033742     0.20500
F987        F  0.40948718  0.87958052  0.73027777    -0.12400
F988        F  0.47077538  0.89944559  0.73918690    -0.14800
F989        F  0.44399403  0.81432204  0.64166294    -0.14800
F990        F  0.50478477  0.83555457  0.64972495    -0.12400
C991        C  0.55225918  0.97967745  0.68803628     0.25600
C992        C  0.56598731  0.95799044  0.70992754    -0.22500
C993        C  0.57935773  0.96978066  0.73855007     0.20500
C994        C  0.57698851  0.00240663  0.74612327     0.25600
C995        C  0.56110833  0.02354996  0.72523276    -0.22400
C996        C  0.54962720  0.01212935  0.69574490     0.20500
F997        F  0.53479127  0.03226402  0.67493992    -0.12400
F998        F  0.53990557  0.96904970  0.65983673    -0.14800
F999        F  0.58801157  0.01290879  0.77490606    -0.14800
F1000       F  0.59226233  0.94934879  0.76033490    -0.12400
loop_ 
_geom_bond_atom_site_label_1 
_geom_bond_atom_site_label_2 
_geom_bond_distance 
_geom_bond_site_symmetry_2 
_ccdc_geom_bond_type 
C1            C2   1.407       .  A
C1            C6   1.400       .  A
C1          C972   1.474       .  S
C2            C3   1.410       .  A
C2            H7   1.083       .  S
C3            C4   1.404       .  A
C3          C992   1.481       .  S
C4            C5   1.399       .  A
C4            H8   1.084       .  S
C5            C6   1.398       .  A
C5          C982   1.481       .  S
C6            H9   1.084       .  S
C10          C11   1.408       .  A
C10          C15   1.403       .  A
C10         C995   1.478       .  S
C11          C12   1.407       .  A
C11          H16   1.083       .  S
C12          C13   1.405       .  A
C12         C952   1.494       .  S
C13          C14   1.402       .  A
C13          H17   1.084       .  S
C14          C15   1.400       .  A
C14         C965   1.473       .  S
C15          H18   1.084       .  S
C19          C20   1.405       .  A
C19          C24   1.402       .  A
C19         C922   1.475       .  S
C20          C21   1.408       .  A
C20          H25   1.083       .  S
C21          C22   1.408       .  A
C21         C942   1.485       .  S
C22          C23   1.404       .  A
C22          H26   1.084       .  S
C23          C24   1.400       .  A
C23         C932   1.487       .  S
C24          H27   1.084       .  S
C28          C29   1.406       .  A
C28          C33   1.401       .  A
C28         C912   1.477       .  S
C29          C30   1.408       .  A
C29          H34   1.083       .  S
C30          C31   1.406       .  A
C30         C945   1.479       .  S
C31          C32   1.404       .  A
C31          H35   1.083       .  S
C32          C33   1.402       .  A
C32         C902   1.491       .  S
C33          H36   1.084       .  S
C37          C38   1.411       .  A
C37          C42   1.407       .  A
C37         C892   1.487       .  S
C38          C39   1.408       .  A
C38          H43   1.083       .  S
C39          C40   1.405       .  A
C39         C882   1.485       .  S
C40          C41   1.401       .  A
C40          H44   1.084       .  S
C41          C42   1.402       .  A
C41         C872   1.492       .  S
C42          H45   1.083       .  S
C46          C47   1.399       .  A
C46          C51   1.403       .  A
C46         C855   1.472       .  S
C47          C48   1.398       .  A
C47          H52   1.084       .  S
C48          C49   1.404       .  A
C48         C862   1.486       .  S
C49          C50   1.410       .  A
C49          H53   1.083       .  S
C50          C51   1.409       .  A
C50         C895   1.488       .  S
C51          H54   1.083       .  S
C55          C56   1.405       .  A
C55          C60   1.408       .  A
C55         C822   1.481       .  S
C56          C57   1.401       .  A
C56          H61   1.084       .  S
C57          C58   1.402       .  A
C57         C832   1.489       .  S
C58          C59   1.406       .  A
C58          H62   1.084       .  S
C59          C60   1.408       .  A
C59         C842   1.482       .  S
C60          H63   1.083       .  S
C64          C65   1.412       .  A
C64          C69   1.412       .  A
C64         C845   1.489       .  S
C65          C66   1.403       .  A
C65          H70   1.083       .  S
C66          C67   1.397       .  A
C66         C802   1.489       .  S
C67          C68   1.401       .  A
C67          H71   1.084       .  S
C68          C69   1.407       .  A
C68         C812   1.481       .  S
C69          H72   1.083       .  S
O73          C89   1.271       .  A
O73         Zn79   1.997       .  S
C74         C835   1.481       .  S
C74          O90   1.273       .  A
C74          O87   1.274       .  A
O75          C88   1.278       .  A
O75         Cd82   2.100       .  S
O76          C94   1.274       .  A
O76         Cd85   2.047       .  S
O77          C91   1.272       .  A
O77         Cd81   2.058       .  S
O78          C89   1.273       .  A
O78         Cd81   2.066       .  S
Zn79         O90   2.013       .  S
Zn79         O92   1.987       .  S
Zn79         O84   1.933       .  S
O80          C91   1.276       .  A
O80         Cd85   2.087       .  S
Cd81         O83   2.048       .  S
Cd81         O84   1.990       .  S
Cd82         O86   2.103       .  S
Cd82         O95   2.102       .  S
Cd82         O84   2.030       .  S
O83          C93   1.273       .  A
O84         Cd85   1.993       .  S
Cd85         O87   2.076       .  S
O86          C93   1.279       .  A
C88         C785   1.479       .  S
C88          O92   1.272       .  A
C89         C772   1.477       .  S
C91         C762   1.478       .  S
C93         C962   1.474       .  S
C94         C792   1.477       .  S
C94          O95   1.279       .  A
O96         C112   1.274       .  A
O96        Zn102   2.016       .  S
C97         C865   1.484       .  S
C97         O113   1.276       .  A
C97         O110   1.270       .  A
O98         C111   1.278       .  A
O98        Cd105   2.098       .  S
O99         C117   1.272       .  A
O99        Cd108   2.040       .  S
O100        C114   1.273       .  A
O100       Cd104   2.064       .  S
O101        C112   1.273       .  A
O101       Cd104   2.066       .  S
Zn102       O113   2.036       .  S
Zn102       O115   2.002       .  S
Zn102       O107   1.942       .  S
O103        C114   1.273       .  A
O103       Cd108   2.060       .  S
Cd104       O106   2.043       .  S
Cd104       O107   1.992       .  S
Cd105       O109   2.107       .  S
Cd105       O118   2.110       .  S
Cd105       O107   2.027       .  S
O106        C116   1.273       .  A
O107       Cd108   1.983       .  S
Cd108       O110   2.042       .  S
O109        C116   1.280       .  A
C111        C915   1.477       .  S
C111        O115   1.274       .  A
C112        C732   1.481       .  S
C114        C985   1.481       .  S
C116        C752   1.477       .  S
C117        C742   1.479       .  S
C117        O118   1.279       .  A
C119        C120   1.408       .  A
C119        C124   1.407       .  A
C119        C725   1.487       .  S
C120        C121   1.406       .  A
C120        H125   1.083       .  S
C121        C122   1.403       .  A
C121        C702   1.476       .  S
C122        C123   1.402       .  A
C122        H126   1.084       .  S
C123        C124   1.404       .  A
C123        C712   1.491   1_455  S
C124        H127   1.083       .  S
C128        C129   1.409       .  A
C128        C133   1.410       .  A
C128        C722   1.484       .  S
C129        C130   1.404       .  A
C129        H134   1.084       .  S
C130        C131   1.398       .  A
C130        C695   1.490   1_455  S
C131        C132   1.401       .  A
C131        H135   1.084       .  S
C132        C133   1.406       .  A
C132        C682   1.476       .  S
C133        H136   1.083       .  S
O137        C153   1.272       .  A
O137       Zn143   2.015       .  S
C138        C662   1.485       .  S
C138        O154   1.275       .  A
C138        O151   1.273       .  A
O139        C152   1.279       .  A
O139       Cd146   2.107       .  S
O140        C158   1.275       .  A
O140       Cd149   2.054       .  S
O141        C155   1.274       .  A
O141       Cd145   2.066       .  S
O142        C153   1.273       .  A
O142       Cd145   2.071       .  S
Zn143       O154   2.028       .  S
Zn143       O156   1.998       .  S
Zn143       O148   1.938       .  S
O144        C155   1.276       .  A
O144       Cd149   2.082       .  S
Cd145       O147   2.044       .  S
Cd145       O148   1.993       .  S
Cd146       O150   2.114       .  S
Cd146       O159   2.117       .  S
Cd146       O148   2.034       .  S
O147        C157   1.272       .  A
O148       Cd149   1.994       .  S
Cd149       O151   2.065       .  S
O150        C157   1.280       .  A
C152        C815   1.485       .  S
C152        O156   1.274       .  A
C153        C715   1.473       .  S
C155        C935   1.487       .  S
C157        C672   1.478       .  S
C158        C885   1.485       .  S
C158        O159   1.282       .  A
C160        C161   1.406       .  A
C160        C165   1.407       .  A
C160        C655   1.479       .  S
C161        C162   1.404       .  A
C161        H166   1.084       .  S
C162        C163   1.400       .  A
C162        C642   1.489       .  S
C163        C164   1.403       .  A
C163        H167   1.084       .  S
C164        C165   1.405       .  A
C164        C795   1.476       .  S
C165        H168   1.083       .  S
C169        C170   1.404       .  A
C169        C174   1.407       .  A
C169        C635   1.482       .  S
C170        C171   1.397       .  A
C170        H175   1.084       .  S
C171        C172   1.401       .  A
C171        C625   1.482       .  S
C172        C173   1.408       .  A
C172        H176   1.084       .  S
C173        C174   1.410       .  A
C173        C652   1.485       .  S
C174        H177   1.083       .  S
O178        C194   1.272       .  A
O178       Zn184   2.008       .  S
C179        C645   1.483       .  S
C179        O195   1.275       .  A
C179        O192   1.274       .  A
O180        C193   1.279       .  A
O180       Cd187   2.101       .  S
O181        C199   1.274       .  A
O181       Cd190   2.050       .  S
O182        C196   1.273       .  A
O182       Cd186   2.060       .  S
O183        C194   1.276       .  A
O183       Cd186   2.082       .  S
Zn184       O195   2.028       .  S
Zn184       O197   2.000       .  S
Zn184       O189   1.940       .  S
O185        C196   1.276       .  A
O185       Cd190   2.084       .  S
Cd186       O188   2.060       .  S
Cd186       O189   1.995       .  S
Cd187       O191   2.102       .  S
Cd187       O200   2.099       .  S
Cd187       O189   2.029       .  S
O188        C198   1.275       .  A
O189       Cd190   1.997       .  S
Cd190       O192   2.070       .  S
O191        C198   1.278       .  A
C193        C592   1.481       .  S
C193        O197   1.274       .  A
C194        C805   1.484       .  S
C196        C692   1.484       .  S
C198        C612   1.481       .  S
C199        C605   1.476       .  S
C199        O200   1.278       .  A
C201        C202   1.407       .  A
C201        C206   1.401       .  A
C201        C562   1.478       .  S
C202        C203   1.412       .  A
C202        H207   1.083       .  S
C203        C204   1.409       .  A
C203        C582   1.489       .  S
C204        C205   1.403       .  A
C204        H208   1.084       .  S
C205        C206   1.399       .  A
C205        C572   1.487   1_554  S
C206        H209   1.084       .  S
C210        C211   1.402       .  A
C210        C215   1.407       .  A
C210        C595   1.482       .  S
C211        C212   1.400       .  A
C211        H216   1.084       .  S
C212        C213   1.405       .  A
C212        C765   1.491   1_554  S
C213        C214   1.408       .  A
C213        H217   1.083       .  S
C214        C215   1.410       .  A
C214        C585   1.487       .  S
C215        H218   1.083       .  S
C219        C220   1.402       .  A
C219        C224   1.403       .  A
C219        C755   1.475       .  S
C220        C221   1.406       .  A
C220        H225   1.084       .  S
C221        C222   1.406       .  A
C221        C552   1.480       .  S
C222        C223   1.405       .  A
C222        H226   1.083       .  S
C223        C224   1.403       .  A
C223        C542   1.491       .  S
C224        H227   1.084       .  S
C228        C229   1.409       .  A
C228        C233   1.406       .  A
C228        C555   1.483       .  S
C229        C230   1.406       .  A
C229        H234   1.083       .  S
C230        C231   1.400       .  A
C230        C522   1.474       .  S
C231        C232   1.398       .  A
C231        H235   1.085       .  S
C232        C233   1.400       .  A
C232        C532   1.481       .  S
C233        H236   1.084       .  S
O237        C253   1.275       .  A
O237       Zn243   2.034       .  S
C238        C545   1.473       .  S
C238        O254   1.275       .  A
C238        O251   1.274       .  A
O239        C252   1.274       .  A
O239       Cd246   2.079       .  S
O240        C258   1.274       .  A
O240       Cd249   2.059       .  S
O241        C255   1.274       .  A
O241       Cd245   2.079       .  S
O242        C253   1.274       .  A
O242       Cd245   2.068       .  S
Zn243       O254   2.021       .  S
Zn243       O256   2.018       .  S
Zn243       O248   1.942       .  S
O244        C255   1.273       .  A
O244       Cd249   2.072       .  S
Cd245       O247   2.056       .  S
Cd245       O248   1.989       .  S
Cd246       O250   2.080       .  S
Cd246       O259   2.085       .  S
Cd246       O248   2.020       .  S
O247        C257   1.275       .  A
O248       Cd249   1.993       .  S
Cd249       O251   2.066       .  S
O250        C257   1.276       .  A
C252        C515   1.470       .  S
C252        O256   1.274       .  A
C253        C955   1.478       .  S
C255        C575   1.474       .  S
C257        C502   1.471       .  S
C258        C632   1.467       .  S
C258        O259   1.275       .  A
C260        C261   1.406       .  A
C260        C265   1.402       .  A
C260        C485   1.476       .  S
C261        C262   1.410       .  A
C261        H266   1.083       .  S
C262        C263   1.409       .  A
C262        C495   1.489       .  S
C263        C264   1.404       .  A
C263        H267   1.084       .  S
C264        C265   1.399       .  A
C264        C472   1.490   1_545  S
C265        H268   1.084       .  S
C269        C270   1.410       .  A
C269        C274   1.406       .  A
C269        C492   1.484       .  S
C270        C271   1.407       .  A
C270        H275   1.083       .  S
C271        C272   1.401       .  A
C271        C512   1.474       .  S
C272        C273   1.397       .  A
C272        H276   1.085       .  S
C273        C274   1.401       .  A
C273        C735   1.482   1_545  S
C274        H277   1.084       .  S
O278        C294   1.272       .  A
O278       Zn284   2.003       .  S
C279        C622   1.483       .  S
C279        O295   1.276       .  A
C279        O292   1.272       .  A
O280        C293   1.278       .  A
O280       Cd287   2.100       .  S
O281        C299   1.274       .  A
O281       Cd290   2.049       .  S
O282        C296   1.273       .  A
O282       Cd286   2.064       .  S
O283        C294   1.274       .  A
O283       Cd286   2.068       .  S
Zn284       O295   2.035       .  S
Zn284       O297   2.005       .  S
Zn284       O289   1.941       .  S
O285        C296   1.276       .  A
O285       Cd290   2.077       .  S
Cd286       O288   2.049       .  S
Cd286       O289   1.995       .  S
Cd287       O291   2.107       .  S
Cd287       O300   2.104       .  S
Cd287       O289   2.030       .  S
O288        C298   1.274       .  A
O289       Cd290   1.990       .  S
Cd290       O292   2.061       .  S
O291        C298   1.279       .  A
C293        C565   1.477       .  S
C293        O297   1.274       .  A
C294        C535   1.479       .  S
C296        C465   1.483       .  S
C298        C482   1.478       .  S
C299        C685   1.477       .  S
C299        O300   1.279       .  A
C301        C302   1.406       .  A
C301        C306   1.402       .  A
C301        C675   1.478       .  S
C302        C303   1.409       .  A
C302        H307   1.083       .  S
C303        C304   1.407       .  A
C303        C452   1.486       .  S
C304        C305   1.401       .  A
C304        H308   1.084       .  S
C305        C306   1.402       .  A
C305        C442   1.487       .  S
C306        H309   1.084       .  S
C310        C311   1.408       .  A
C310        C315   1.409       .  A
C310        C455   1.483       .  S
C311        C312   1.403       .  A
C311        H316   1.084       .  S
C312        C313   1.400       .  A
C312        C462   1.489       .  S
C313        C314   1.401       .  A
C313        H317   1.084       .  S
C314        C315   1.405       .  A
C314        C602   1.476       .  S
C315        H318   1.083       .  S
O319        C335   1.276       .  A
O319       Zn325   2.032       .  S
C320        C475   1.474       .  S
C320        O336   1.277       .  A
C320        O333   1.271       .  A
O321        C334   1.277       .  A
O321       Cd328   2.094       .  S
O322        C340   1.273       .  A
O322       Cd331   2.045       .  S
O323        C337   1.272       .  A
O323       Cd327   2.066       .  S
O324        C335   1.274       .  A
O324       Cd327   2.056       .  S
Zn325       O336   2.049       .  S
Zn325       O338   2.006       .  S
Zn325       O330   1.948       .  S
O326        C337   1.274       .  A
O326       Cd331   2.068       .  S
Cd327       O329   2.047       .  S
Cd327       O330   1.988       .  S
Cd328       O332   2.103       .  S
Cd328       O341   2.096       .  S
Cd328       O330   2.028       .  S
O329        C339   1.273       .  A
O330       Cd331   1.985       .  S
Cd331       O333   2.051       .  S
O332        C339   1.278       .  A
C334        C525   1.473       .  S
C334        O338   1.274       .  A
C335        C445   1.482       .  S
C337        C905   1.484       .  S
C339        C705   1.473       .  S
C340        C852   1.473       .  S
C340        O341   1.278       .  A
C342        C343   1.408       .  A
C342        C347   1.406       .  A
C342        C432   1.478       .  S
C343        C344   1.404       .  A
C343        H348   1.084       .  S
C344        C345   1.397       .  A
C344        C775   1.486       .  S
C345        C346   1.398       .  A
C345        H349   1.084       .  S
C346        C347   1.402       .  A
C346        C505   1.469       .  S
C347        H350   1.083       .  S
C351        C352   1.403       .  A
C351        C356   1.407       .  A
C351        C745   1.478       .  S
C352        C353   1.399       .  A
C352        H357   1.084       .  S
C353        C354   1.400       .  A
C353        C422   1.488       .  S
C354        C355   1.406       .  A
C354        H358   1.084       .  S
C355        C356   1.410       .  A
C355        C435   1.483       .  S
C356        H359   1.083       .  S
C360        C361   1.401       .  A
C360        C365   1.407       .  A
C360        C615   1.478       .  S
C361        C362   1.398       .  A
C361        H366   1.084       .  S
C362        C363   1.403       .  A
C362        C665   1.487       .  S
C363        C364   1.408       .  A
C363        H367   1.084       .  S
C364        C365   1.411       .  A
C364        C412   1.483       .  S
C365        H368   1.083       .  S
C369        C370   1.408       .  A
C369        C374   1.407       .  A
C369        C415   1.481       .  S
C370        C371   1.406       .  A
C370        H375   1.083       .  S
C371        C372   1.402       .  A
C371        C782   1.480       .  S
C372        C373   1.400       .  A
C372        H376   1.084       .  S
C373        C374   1.403       .  A
C373        C402   1.486       .  S
C374        H377   1.084       .  S
O378        C394   1.274       .  A
O378       Zn384   2.027       .  S
C379        C425   1.473       .  S
C379        O395   1.275       .  A
C379        O392   1.272       .  A
O380        C393   1.276       .  A
O380       Cd387   2.085       .  S
O381        C399   1.273       .  A
O381       Cd390   2.051       .  S
O382        C396   1.274       .  A
O382       Cd386   2.075       .  S
O383        C394   1.274       .  A
O383       Cd386   2.069       .  S
Zn384       O395   2.027       .  S
Zn384       O397   2.008       .  S
Zn384       O389   1.938       .  S
O385        C396   1.274       .  A
O385       Cd390   2.065       .  S
Cd386       O388   2.055       .  S
Cd386       O389   1.991       .  S
Cd387       O391   2.094       .  S
Cd387       O400   2.100       .  S
Cd387       O389   2.021       .  S
O388        C398   1.274       .  A
O389       Cd390   1.983       .  S
Cd390       O392   2.057       .  S
O391        C398   1.278       .  A
C393        C975   1.470       .  S
C393        O397   1.274       .  A
C394        C875   1.480       .  S
C396        C405   1.473       .  S
C398        C925   1.468       .  S
C399        C825   1.480       .  S
C399        O400   1.278       .  A
C401        C402   1.409       .  A
C401        C406   1.401       .  A
C401        F408   1.358       .  S
C402        C403   1.409       .  A
C403        C404   1.397       .  A
C403        F410   1.358       .  S
C404        C405   1.403       .  A
C404        F409   1.358       .  S
C405        C406   1.405       .  A
C406        F407   1.358       .  S
C411        C412   1.406       .  A
C411        C416   1.404       .  A
C411        F418   1.357       .  S
C412        C413   1.407       .  A
C413        C414   1.399       .  A
C413        F420   1.358       .  S
C414        C415   1.405       .  A
C414        F419   1.358       .  S
C415        C416   1.406       .  A
C416        F417   1.358       .  S
C421        C422   1.410       .  A
C421        C426   1.397       .  A
C421        F428   1.358       .  S
C422        C423   1.411       .  A
C423        C424   1.398       .  A
C423        F430   1.358       .  S
C424        C425   1.405       .  A
C424        F429   1.358       .  S
C425        C426   1.403       .  A
C426        F427   1.358       .  S
C431        C432   1.403       .  A
C431        C436   1.393       .  A
C431        F438   1.358       .  S
C432        C433   1.407       .  A
C433        C434   1.405       .  A
C433        F440   1.358       .  S
C434        C435   1.407       .  A
C434        F439   1.357       .  S
C435        C436   1.408       .  A
C436        F437   1.358       .  S
C441        C442   1.408   1_455  A
C441        C446   1.402       .  A
C441        F448   1.358       .  S
C442        C443   1.407       .  A
C443        C444   1.396   1_655  A
C443        F450   1.358       .  S
C444        C445   1.408       .  A
C444        F449   1.358       .  S
C445        C446   1.408       .  A
C446        F447   1.358       .  S
C451        C452   1.408       .  A
C451        C456   1.396   1_565  A
C451        F458   1.358       .  S
C452        C453   1.408       .  A
C453        C454   1.405       .  A
C453        F460   1.358       .  S
C454        C455   1.407   1_565  A
C454        F459   1.357   1_565  S
C455        C456   1.405       .  A
C456        F457   1.358       .  S
C461        C462   1.408   1_455  A
C461        C466   1.401       .  A
C461        F468   1.358       .  S
C462        C463   1.409       .  A
C463        C464   1.397   1_655  A
C463        F470   1.358       .  S
C464        C465   1.406       .  A
C464        F469   1.358       .  S
C465        C466   1.410       .  A
C466        F467   1.358       .  S
C471        C472   1.409       .  A
C471        C476   1.398       .  A
C471        F478   1.358       .  S
C472        C473   1.411       .  A
C473        C474   1.402       .  A
C473        F480   1.358       .  S
C474        C475   1.403       .  A
C474        F479   1.358       .  S
C475        C476   1.404       .  A
C476        F477   1.358       .  S
C481        C482   1.406       .  A
C481        C486   1.395       .  A
C481        F488   1.358       .  S
C482        C483   1.407       .  A
C483        C484   1.406       .  A
C483        F490   1.357       .  S
C484        C485   1.406       .  A
C484        F489   1.358       .  S
C485        C486   1.402       .  A
C486        F487   1.358       .  S
C491        C492   1.407       .  A
C491        C496   1.406       .  A
C491        F498   1.357       .  S
C492        C493   1.405       .  A
C493        C494   1.396       .  A
C493        F500   1.358       .  S
C494        C495   1.408       .  A
C494        F499   1.358       .  S
C495        C496   1.409       .  A
C496        F497   1.357       .  S
C501        C502   1.405       .  A
C501        C506   1.393       .  A
C501        F508   1.358       .  S
C502        C503   1.407       .  A
C503        C504   1.402       .  A
C503        F510   1.358       .  S
C504        C505   1.404       .  A
C504        F509   1.358       .  S
C505        C506   1.403       .  A
C506        F507   1.358       .  S
C511        C512   1.404       .  A
C511        C516   1.400       .  A
C511        F518   1.358       .  S
C512        C513   1.406       .  A
C513        C514   1.400       .  A
C513        F520   1.358       .  S
C514        C515   1.404       .  A
C514        F519   1.358       .  S
C515        C516   1.404       .  A
C516        F517   1.358       .  S
C521        C522   1.406       .  A
C521        C526   1.403       .  A
C521        F528   1.358       .  S
C522        C523   1.403       .  A
C523        C524   1.397       .  A
C523        F530   1.358       .  S
C524        C525   1.405       .  A
C524        F529   1.358       .  S
C525        C526   1.405       .  A
C526        F527   1.358       .  S
C531        C532   1.405   1_545  A
C531        C536   1.398       .  A
C531        F538   1.358       .  S
C532        C533   1.407       .  A
C533        C534   1.397   1_565  A
C533        F540   1.358       .  S
C534        C535   1.407       .  A
C534        F539   1.358       .  S
C535        C536   1.409       .  A
C536        F537   1.358       .  S
C541        C542   1.411   1_545  A
C541        C546   1.399       .  A
C541        F548   1.358   1_545  S
C542        C543   1.411   1_565  A
C543        C544   1.398       .  A
C543        F550   1.358       .  S
C544        C545   1.403       .  A
C544        F549   1.358       .  S
C545        C546   1.403       .  A
C546        F547   1.358       .  S
C551        C552   1.407       .  A
C551        C556   1.401       .  A
C551        F558   1.358       .  S
C552        C553   1.404       .  A
C553        C554   1.398       .  A
C553        F560   1.358       .  S
C554        C555   1.408   1_556  A
C554        F559   1.358   1_556  S
C555        C556   1.406   1_554  A
C556        F557   1.358   1_556  S
C561        C562   1.407       .  A
C561        C566   1.405       .  A
C561        F568   1.357       .  S
C562        C563   1.403       .  A
C563        C564   1.397       .  A
C563        F570   1.358       .  S
C564        C565   1.406       .  A
C564        F569   1.358       .  S
C565        C566   1.406       .  A
C566        F567   1.357       .  S
C571        C572   1.410       .  A
C571        C576   1.399       .  A
C571        F578   1.358       .  S
C572        C573   1.408       .  A
C573        C574   1.401       .  A
C573        F580   1.358       .  S
C574        C575   1.404       .  A
C574        F579   1.358       .  S
C575        C576   1.403       .  A
C576        F577   1.358       .  S
C581        C582   1.408       .  A
C581        C586   1.400       .  A
C581        F588   1.358       .  S
C582        C583   1.408       .  A
C583        C584   1.405       .  A
C583        F590   1.357       .  S
C584        C585   1.408       .  A
C584        F589   1.358       .  S
C585        C586   1.406       .  A
C586        F587   1.358       .  S
C591        C592   1.408       .  A
C591        C596   1.397       .  A
C591        F598   1.359       .  S
C592        C593   1.407       .  A
C593        C594   1.404       .  A
C593        F600   1.357       .  S
C594        C595   1.406       .  A
C594        F599   1.357       .  S
C595        C596   1.405       .  A
C596        F597   1.358       .  S
C601        C602   1.403       .  A
C601        C606   1.395       .  A
C601        F608   1.358       .  S
C602        C603   1.406       .  A
C603        C604   1.405       .  A
C603        F610   1.357       .  S
C604        C605   1.407       .  A
C604        F609   1.358       .  S
C605        C606   1.406       .  A
C606        F607   1.359       .  S
C611        C612   1.408       .  A
C611        C616   1.407       .  A
C611        F618   1.357       .  S
C612        C613   1.407       .  A
C613        C614   1.395       .  A
C613        F620   1.358       .  S
C614        C615   1.404       .  A
C614        F619   1.359       .  S
C615        C616   1.406       .  A
C616        F617   1.357       .  S
C621        C622   1.410       .  A
C621        C626   1.400       .  A
C621        F628   1.358       .  S
C622        C623   1.408       .  A
C623        C624   1.400   1_554  A
C623        F630   1.358       .  S
C624        C625   1.407       .  A
C624        F629   1.358       .  S
C625        C626   1.404   1_556  A
C626        F627   1.358       .  S
C631        C632   1.401       .  A
C631        C636   1.395       .  A
C631        F638   1.358       .  S
C632        C633   1.404       .  A
C633        C634   1.403       .  A
C633        F640   1.358       .  S
C634        C635   1.408       .  A
C634        F639   1.357       .  S
C635        C636   1.408       .  A
C636        F637   1.358       .  S
C641        C642   1.410       .  A
C641        C646   1.399   1_556  A
C641        F648   1.358       .  S
C642        C643   1.408   1_556  A
C643        C644   1.401       .  A
C643        F650   1.358   1_554  S
C644        C645   1.408       .  A
C644        F649   1.358       .  S
C645        C646   1.407       .  A
C646        F647   1.358       .  S
C651        C652   1.408       .  A
C651        C656   1.404   1_455  A
C651        F658   1.358       .  S
C652        C653   1.407   1_455  A
C653        C654   1.397       .  A
C653        F660   1.358   1_655  S
C654        C655   1.403       .  A
C654        F659   1.358       .  S
C655        C656   1.406       .  A
C656        F657   1.358       .  S
C661        C662   1.408       .  A
C661        C666   1.398       .  A
C661        F668   1.358       .  S
C662        C663   1.410       .  A
C663        C664   1.401       .  A
C663        F670   1.358       .  S
C664        C665   1.406       .  A
C664        F669   1.358       .  S
C665        C666   1.409       .  A
C666        F667   1.358       .  S
C671        C672   1.407       .  A
C671        C676   1.397       .  A
C671        F678   1.358       .  S
C672        C673   1.407       .  A
C673        C674   1.406       .  A
C673        F680   1.357       .  S
C674        C675   1.406       .  A
C674        F679   1.357       .  S
C675        C676   1.403       .  A
C676        F677   1.358       .  S
C681        C682   1.406       .  A
C681        C686   1.406       .  A
C681        F688   1.357       .  S
C682        C683   1.404       .  A
C683        C684   1.394       .  A
C683        F690   1.359       .  S
C684        C685   1.406       .  A
C684        F689   1.359       .  S
C685        C686   1.407       .  A
C686        F687   1.357       .  S
C691        C692   1.406       .  A
C691        C696   1.398       .  A
C691        F698   1.358       .  S
C692        C693   1.410       .  A
C693        C694   1.400       .  A
C693        F700   1.358       .  S
C694        C695   1.407       .  A
C694        F699   1.358       .  S
C695        C696   1.411       .  A
C696        F697   1.358   1_655  S
C701        C702   1.403       .  A
C701        C706   1.397       .  A
C701        F708   1.358       .  S
C702        C703   1.406       .  A
C703        C704   1.404       .  A
C703        F710   1.358       .  S
C704        C705   1.405       .  A
C704        F709   1.358       .  S
C705        C706   1.406       .  A
C706        F707   1.358       .  S
C711        C712   1.411       .  A
C711        C716   1.401       .  A
C711        F718   1.358       .  S
C712        C713   1.411       .  A
C713        C714   1.398       .  A
C713        F720   1.358       .  S
C714        C715   1.403       .  A
C714        F719   1.358       .  S
C715        C716   1.404       .  A
C716        F717   1.358       .  S
C721        C722   1.408       .  A
C721        C726   1.406       .  A
C721        F728   1.357       .  S
C722        C723   1.405       .  A
C723        C724   1.396       .  A
C723        F730   1.358       .  S
C724        C725   1.408       .  A
C724        F729   1.358       .  S
C725        C726   1.408       .  A
C726        F727   1.357       .  S
C731        C732   1.408       .  A
C731        C736   1.398       .  A
C731        F738   1.358       .  S
C732        C733   1.408       .  A
C733        C734   1.398       .  A
C733        F740   1.358       .  S
C734        C735   1.405       .  A
C734        F739   1.358       .  S
C735        C736   1.408       .  A
C736        F737   1.358   1_565  S
C741        C742   1.407       .  A
C741        C746   1.394       .  A
C741        F748   1.359       .  S
C742        C743   1.407       .  A
C743        C744   1.406       .  A
C743        F750   1.357       .  S
C744        C745   1.407       .  A
C744        F749   1.357       .  S
C745        C746   1.403       .  A
C746        F747   1.358       .  S
C751        C752   1.407       .  A
C751        C756   1.395       .  A
C751        F758   1.358       .  S
C752        C753   1.407       .  A
C753        C754   1.404       .  A
C753        F760   1.358       .  S
C754        C755   1.406       .  A
C754        F759   1.358       .  S
C755        C756   1.402       .  A
C756        F757   1.358       .  S
C761        C762   1.404       .  A
C761        C766   1.400       .  A
C761        F768   1.358       .  S
C762        C763   1.407       .  A
C763        C764   1.399       .  A
C763        F770   1.358       .  S
C764        C765   1.409       .  A
C764        F769   1.358       .  S
C765        C766   1.412       .  A
C766        F767   1.358       .  S
C771        C772   1.408       .  A
C771        C776   1.398       .  A
C771        F778   1.358       .  S
C772        C773   1.405       .  A
C773        C774   1.396       .  A
C773        F780   1.358       .  S
C774        C775   1.410       .  A
C774        F779   1.358       .  S
C775        C776   1.407       .  A
C776        F777   1.358       .  S
C781        C782   1.404       .  A
C781        C786   1.394       .  A
C781        F788   1.358       .  S
C782        C783   1.407       .  A
C783        C784   1.405       .  A
C783        F790   1.357       .  S
C784        C785   1.407       .  A
C784        F789   1.357       .  S
C785        C786   1.408       .  A
C786        F787   1.359       .  S
C791        C792   1.407       .  A
C791        C796   1.393       .  A
C791        F798   1.359       .  S
C792        C793   1.407       .  A
C793        C794   1.406       .  A
C793        F800   1.357       .  S
C794        C795   1.406       .  A
C794        F799   1.357       .  S
C795        C796   1.402       .  A
C796        F797   1.358       .  S
C801        C802   1.407       .  A
C801        C806   1.401       .  A
C801        F808   1.358       .  S
C802        C803   1.410       .  A
C803        C804   1.398       .  A
C803        F810   1.358       .  S
C804        C805   1.406       .  A
C804        F809   1.358       .  S
C805        C806   1.411       .  A
C806        F807   1.358       .  S
C811        C812   1.406       .  A
C811        C816   1.408       .  A
C811        F818   1.357       .  S
C812        C813   1.404       .  A
C813        C814   1.393       .  A
C813        F820   1.359       .  S
C814        C815   1.408       .  A
C814        F819   1.359       .  S
C815        C816   1.410       .  A
C816        F817   1.357       .  S
C821        C822   1.407       .  A
C821        C826   1.405       .  A
C821        F828   1.357       .  S
C822        C823   1.405       .  A
C823        C824   1.395       .  A
C823        F830   1.358       .  S
C824        C825   1.407       .  A
C824        F829   1.359       .  S
C825        C826   1.407       .  A
C826        F827   1.357       .  S
C831        C832   1.409       .  A
C831        C836   1.400       .  A
C831        F838   1.358       .  S
C832        C833   1.409       .  A
C833        C834   1.399       .  A
C833        F840   1.358       .  S
C834        C835   1.407       .  A
C834        F839   1.358       .  S
C835        C836   1.407       .  A
C836        F837   1.358       .  S
C841        C842   1.405       .  A
C841        C846   1.397       .  A
C841        F848   1.358       .  S
C842        C843   1.406       .  A
C843        C844   1.405   1_556  A
C843        F850   1.358       .  S
C844        C845   1.409       .  A
C844        F849   1.357       .  S
C845        C846   1.408   1_554  A
C846        F847   1.358       .  S
C851        C852   1.406       .  A
C851        C856   1.404       .  A
C851        F858   1.358       .  S
C852        C853   1.406       .  A
C853        C854   1.393       .  A
C853        F860   1.358       .  S
C854        C855   1.402       .  A
C854        F859   1.358       .  S
C855        C856   1.405       .  A
C856        F857   1.357       .  S
C861        C862   1.410       .  A
C861        C866   1.399       .  A
C861        F868   1.358       .  S
C862        C863   1.405       .  A
C863        C864   1.397       .  A
C863        F870   1.358       .  S
C864        C865   1.412       .  A
C864        F869   1.358       .  S
C865        C866   1.407       .  A
C866        F867   1.358       .  S
C871        C872   1.410       .  A
C871        C876   1.399       .  A
C871        F878   1.358       .  S
C872        C873   1.411       .  A
C873        C874   1.400       .  A
C873        F880   1.358       .  S
C874        C875   1.406       .  A
C874        F879   1.358       .  S
C875        C876   1.406       .  A
C876        F877   1.358       .  S
C881        C882   1.405       .  A
C881        C886   1.396       .  A
C881        F888   1.358       .  S
C882        C883   1.408       .  A
C883        C884   1.407       .  A
C883        F890   1.357       .  S
C884        C885   1.408       .  A
C884        F889   1.357       .  S
C885        C886   1.409       .  A
C886        F887   1.359       .  S
C891        C892   1.407       .  A
C891        C896   1.398       .  A
C891        F898   1.358       .  S
C892        C893   1.408       .  A
C893        C894   1.403       .  A
C893        F900   1.357       .  S
C894        C895   1.408       .  A
C894        F899   1.358       .  S
C895        C896   1.408       .  A
C896        F897   1.358       .  S
C901        C902   1.410       .  A
C901        C906   1.397       .  A
C901        F908   1.358       .  S
C902        C903   1.409       .  A
C903        C904   1.401       .  A
C903        F910   1.358       .  S
C904        C905   1.409       .  A
C904        F909   1.358       .  S
C905        C906   1.407       .  A
C906        F907   1.358       .  S
C911        C912   1.404       .  A
C911        C916   1.396       .  A
C911        F918   1.358       .  S
C912        C913   1.406       .  A
C913        C914   1.405       .  A
C913        F920   1.357       .  S
C914        C915   1.407       .  A
C914        F919   1.358       .  S
C915        C916   1.406       .  A
C916        F917   1.358       .  S
C921        C922   1.404       .  A
C921        C926   1.400       .  A
C921        F928   1.358       .  S
C922        C923   1.405       .  A
C923        C924   1.400       .  A
C923        F930   1.358       .  S
C924        C925   1.403       .  A
C924        F929   1.358       .  S
C925        C926   1.404       .  A
C926        F927   1.358       .  S
C931        C932   1.408       .  A
C931        C936   1.400       .  A
C931        F938   1.358       .  S
C932        C933   1.406       .  A
C933        C934   1.400       .  A
C933        F940   1.358       .  S
C934        C935   1.411       .  A
C934        F939   1.358       .  S
C935        C936   1.409       .  A
C936        F937   1.358       .  S
C941        C942   1.407       .  A
C941        C946   1.398   1_655  A
C941        F948   1.358       .  S
C942        C943   1.408       .  A
C943        C944   1.404       .  A
C943        F950   1.358       .  S
C944        C945   1.405   1_655  A
C944        F949   1.358   1_655  S
C945        C946   1.404       .  A
C946        F947   1.358       .  S
C951        C952   1.411       .  A
C951        C956   1.399       .  A
C951        F958   1.358       .  S
C952        C953   1.411       .  A
C953        C954   1.402       .  A
C953        F960   1.357       .  S
C954        C955   1.405       .  A
C954        F959   1.358       .  S
C955        C956   1.404       .  A
C956        F957   1.358       .  S
C961        C962   1.407       .  A
C961        C966   1.396       .  A
C961        F968   1.358       .  S
C962        C963   1.406       .  A
C963        C964   1.403       .  A
C963        F970   1.358       .  S
C964        C965   1.405       .  A
C964        F969   1.358       .  S
C965        C966   1.401       .  A
C966        F967   1.358       .  S
C971        C972   1.404       .  A
C971        C976   1.398       .  A
C971        F978   1.358       .  S
C972        C973   1.406       .  A
C973        C974   1.401       .  A
C973        F980   1.358       .  S
C974        C975   1.404       .  A
C974        F979   1.358       .  S
C975        C976   1.404       .  A
C976        F977   1.358       .  S
C981        C982   1.406       .  A
C981        C986   1.397       .  A
C981        F988   1.358       .  S
C982        C983   1.406       .  A
C983        C984   1.396       .  A
C983        F990   1.358       .  S
C984        C985   1.409       .  A
C984        F989   1.358       .  S
C985        C986   1.409       .  A
C986        F987   1.358       .  S
C991        C992   1.408       .  A
C991        C996   1.397   1_565  A
C991        F998   1.358       .  S
C992        C993   1.406       .  A
C993        C994   1.402   1_565  A
C993       F1000   1.358       .  S
C994        C995   1.407       .  A
C994        F999   1.358       .  S
C995        C996   1.403       .  A
C996        F997   1.358       .  S
