geometry optimzed in LAMMPS
_audit_creation_date              2020-12-01 
_audit_creation_method            'lammps2cif' 
_symmetry_space_group_name_H-M    'P1' 
_symmetry_Int_Tables_number       1 
_symmetry_cell_setting            triclinic 
loop_ 
_symmetry_equiv_pos_as_xyz 
  x,y,z 
_cell_length_a                    36.42173908 
_cell_length_b                    36.392430544376836 
_cell_length_c                    25.223085536597804 
_cell_angle_alpha                 90.27814765885465 
_cell_angle_beta                  89.30741489353635 
_cell_angle_gamma                 89.98070136510275 
loop_ 
_atom_site_label 
_atom_site_type_symbol 
_atom_site_fract_x 
_atom_site_fract_y 
_atom_site_fract_z 
_atom_site_charge 
N1          N  0.30008428  0.99001864  0.94200902    -0.35900
N2          N  0.30002706  0.98491078  0.05605138    -0.56500
N3          N  0.38102052  0.98248002  0.05411058    -0.35900
N4          N  0.38070132  0.99176421  0.94015098    -0.56500
C5          C  0.26437838  0.99805313  0.95286268     0.27700
C6          C  0.30693796  0.99988317  0.89121258     0.27700
C7          C  0.37390651  0.98654381  0.10665304     0.27700
C8          C  0.41654813  0.99234181  0.04536176     0.27700
C9          C  0.26363086  0.98026507  0.04779135     0.36300
C10         C  0.30629355  0.97450011  0.10650496     0.36300
C11         C  0.37452090  0.98800960  0.88765072     0.36300
C12         C  0.41722340  0.98711355  0.94694365     0.36300
C13         C  0.24843887  0.01310425  0.90829547    -0.21200
C14         C  0.27521516  0.01411849  0.86937232    -0.21200
C15         C  0.40546585  0.99840952  0.13178787    -0.21200
C16         C  0.43228432  0.00216217  0.09316982    -0.21200
C17         C  0.24674015  0.96676500  0.09315449    -0.22300
C18         C  0.27372991  0.96319668  0.13039756    -0.22300
C19         C  0.40729781  0.98077732  0.86099303    -0.22300
C20         C  0.43438187  0.98048881  0.89853120    -0.22300
C21         C  0.24523285  0.99004452  0.00076592    -0.17600
C22         C  0.34035853  0.99437355  0.86298196    -0.17600
C23         C  0.43551897  0.99140291  0.99575676    -0.17600
C24         C  0.34017315  0.97839466  0.13288588    -0.17600
H25         H  0.22029254  0.02204622  0.90401041     0.15300
H26         H  0.27164823  0.02403362  0.82937101     0.15300
H27         H  0.40883841  0.00385534  0.17367353     0.15300
H28         H  0.46025365  0.01099678  0.09964980     0.15300
H29         H  0.21791320  0.96059755  0.09902312     0.13600
H30         H  0.26973490  0.95391469  0.17076317     0.13600
H31         H  0.41140926  0.97707365  0.81873113     0.13600
H32         H  0.46340372  0.97623661  0.89103479     0.13600
H33         H  0.31762837  0.97478741  0.96546482     0.26800
H34         H  0.36353386  0.97033343  0.02694536     0.26800
N35         N  0.29873865  0.99275723  0.55544318    -0.35900
N36         N  0.29966146  0.98217554  0.44086448    -0.56500
N37         N  0.37933926  0.98101153  0.44098173    -0.35900
N38         N  0.37806006  0.99562087  0.55533438    -0.56500
C39         C  0.26322726  0.00005652  0.54443403     0.27700
C40         C  0.30477908  0.00428754  0.60568496     0.27700
C41         C  0.37322777  0.98245916  0.38816089     0.27700
C42         C  0.41465783  0.99110701  0.44871540     0.27700
C43         C  0.26331291  0.97803753  0.45055874     0.36300
C44         C  0.30588000  0.97057878  0.39052861     0.36300
C45         C  0.37203273  0.99348199  0.60821025     0.36300
C46         C  0.41441770  0.99021980  0.54761051     0.36300
C47         C  0.24653228  0.01646753  0.58830951    -0.21200
C48         C  0.27272079  0.01885796  0.62711874    -0.21200
C49         C  0.40531376  0.99265569  0.36197984    -0.21200
C50         C  0.43145459  0.99800967  0.40015217    -0.21200
C51         C  0.24636063  0.96352525  0.40619436    -0.22300
C52         C  0.27331681  0.95893558  0.36809525    -0.22300
C53         C  0.40469494  0.98693439  0.63415880    -0.22300
C54         C  0.43161776  0.98523149  0.59578410    -0.22300
C55         C  0.24486653  0.98979041  0.49741775    -0.17600
C56         C  0.33784842  0.99962160  0.63363985    -0.17600
C57         C  0.43270890  0.99224599  0.49808121    -0.17600
C58         C  0.33970118  0.97419178  0.36283784    -0.17600
H59         H  0.21821619  0.02518612  0.59234994     0.15300
H60         H  0.26860037  0.02980862  0.66672189     0.15300
H61         H  0.40951859  0.99596181  0.31971848     0.15300
H62         H  0.45967848  0.00600555  0.39287177     0.15300
H63         H  0.21746459  0.95762325  0.40138499     0.13600
H64         H  0.26931449  0.94896013  0.32808017     0.13600
H65         H  0.40884852  0.98428073  0.67638433     0.13600
H66         H  0.46057418  0.98096096  0.60265746     0.13600
H67         H  0.31639992  0.97667969  0.53275769     0.26800
H68         H  0.36158108  0.97054623  0.46945075     0.26800
N69         N  0.98348555  0.71540165  0.93911453    -0.35900
N70         N  0.98666364  0.71715203  0.05373393    -0.56500
N71         N  0.99109899  0.63721858  0.05571713    -0.35900
N72         N  0.99044050  0.63518160  0.94157163    -0.56500
C73         C  0.99116428  0.75132942  0.94792019     0.27700
C74         C  0.99392374  0.70764563  0.88860838     0.27700
C75         C  0.99941840  0.64528416  0.10658605     0.27700
C76         C  0.00057935  0.60168980  0.04685203     0.27700
C77         C  0.97836245  0.75279605  0.04472596     0.36300
C78         C  0.98249678  0.71171166  0.10646773     0.36300
C79         C  0.98361946  0.64016770  0.88965975     0.36300
C80         C  0.98616393  0.59891121  0.95097296     0.36300
C81         C  0.00637233  0.76651660  0.90234364    -0.21200
C82         C  0.00790941  0.73901252  0.86484690    -0.21200
C83         C  0.01398845  0.61436972  0.13052025    -0.21200
C84         C  0.01464700  0.58686134  0.09286902    -0.21200
C85         C  0.96855369  0.77000956  0.09197103    -0.22300
C86         C  0.97133213  0.74401868  0.13111726    -0.22300
C87         C  0.97468345  0.60697343  0.86590252    -0.22300
C88         C  0.97640079  0.58074949  0.90481091    -0.22300
C89         C  0.98417863  0.77086905  0.99571179    -0.17600
C90         C  0.98956250  0.67347410  0.86256402    -0.17600
C91         C  0.99449042  0.58174901  0.99942989    -0.17600
C92         C  0.99159786  0.67885783  0.13307164    -0.17600
H93         H  0.01561615  0.79448929  0.89664147     0.15300
H94         H  0.01836979  0.74175146  0.82470739     0.15300
H95         H  0.02267663  0.61168212  0.17120120     0.15300
H96         H  0.02395240  0.55897635  0.09898629     0.15300
H97         H  0.96126827  0.79859050  0.09783148     0.13600
H98         H  0.96649732  0.74859118  0.17305780     0.13600
H99         H  0.96869251  0.60202685  0.82454754     0.13600
H100        H  0.97195711  0.55157450  0.89939856     0.13600
H101        H  0.96883902  0.69807030  0.96433931     0.26800
H102        H  0.97580636  0.65363152  0.03065232     0.26800
N103        N  0.00335710  0.71308373  0.44220736    -0.35900
N104        N  0.99984372  0.63316634  0.43953130    -0.56500
N105        N  0.00241274  0.63217714  0.55454197    -0.35900
N106        N  0.00214059  0.71208426  0.55707832    -0.56500
C107        C  0.99429166  0.70732006  0.39094817     0.27700
C108        C  0.99651882  0.74888985  0.45344079     0.27700
C109        C  0.99470533  0.59653039  0.54430676     0.27700
C110        C  0.99395085  0.63851914  0.60616514     0.27700
C111        C  0.00401099  0.63954164  0.38701798     0.36300
C112        C  0.00535142  0.59676311  0.44660612     0.36300
C113        C  0.01127380  0.74757608  0.54914873     0.36300
C114        C  0.00918793  0.70493736  0.60837871     0.36300
C115        C  0.98200375  0.73994047  0.36916878    -0.21200
C116        C  0.98322149  0.76610405  0.40864274    -0.21200
C117        C  0.98166382  0.57985185  0.59014368    -0.21200
C118        C  0.98093189  0.60644532  0.62912070    -0.21200
C119        C  0.01170207  0.60694682  0.36047352    -0.22300
C120        C  0.01263808  0.57984573  0.39825618    -0.22300
C121        C  0.02474172  0.76290562  0.59544346    -0.22300
C122        C  0.02300164  0.73592348  0.63325235    -0.22300
C123        C  0.99874262  0.67398024  0.36241284    -0.17600
C124        C  0.00429910  0.76690880  0.50198342    -0.17600
C125        C  0.00028030  0.67172786  0.63386475    -0.17600
C126        C  0.00113123  0.57823218  0.49550153    -0.17600
H127        H  0.97322736  0.74449414  0.32888502     0.15300
H128        H  0.97550128  0.79466307  0.40459523     0.15300
H129        H  0.97365172  0.55142837  0.59509481     0.15300
H130        H  0.97243085  0.60242937  0.66995242     0.15300
H131        H  0.01584684  0.60305279  0.31825121     0.13600
H132        H  0.01747997  0.55091338  0.39086654     0.13600
H133        H  0.03395354  0.79084741  0.60167723     0.13600
H134        H  0.03060663  0.73884189  0.67441559     0.13600
H135        H  0.01736331  0.69479762  0.46617922     0.26800
H136        H  0.01664120  0.64985753  0.52944458     0.26800
N137        N  0.72466713  0.00908296  0.05916224    -0.35900
N138        N  0.72366537  0.00293434  0.94485116    -0.56500
N139        N  0.62590231  0.00903220  0.92115987    -0.35900
N140        N  0.64555078  0.02268832  0.06237494    -0.56500
C141        C  0.76131262  0.01010918  0.04822102     0.27700
C142        C  0.71977041  0.02019971  0.11022877     0.27700
C143        C  0.65588032  0.02492801  0.89874479     0.27700
C144        C  0.61451104  0.03157706  0.96087417     0.27700
C145        C  0.75927468  0.99405486  0.95186820     0.36300
C146        C  0.71644488  0.99704309  0.89305015     0.36300
C147        C  0.65111794  0.01937604  0.11481763     0.36300
C148        C  0.60901327  0.01906967  0.05481700     0.36300
C149        C  0.77974147  0.02179692  0.09307062    -0.21200
C150        C  0.75365972  0.02794275  0.13208681    -0.21200
C151        C  0.66308158  0.05810183  0.92346124    -0.21200
C152        C  0.63694352  0.06233935  0.96270191    -0.21200
C153        C  0.77459577  0.98185176  0.90427100    -0.22300
C154        C  0.74731952  0.98354749  0.86698219    -0.22300
C155        C  0.61773929  0.01433940  0.14103175    -0.22300
C156        C  0.59100177  0.01376305  0.10276308    -0.22300
C157        C  0.77882266  0.00008453  0.99938152    -0.17600
C158        C  0.68592944  0.02114683  0.13900057    -0.17600
C159        C  0.59294071  0.01973775  0.00420539    -0.17600
C160        C  0.68250362  0.00545060  0.86952430    -0.17600
H161        H  0.80904116  0.02538321  0.09746987     0.15300
H162        H  0.75906420  0.03699993  0.17218125     0.15300
H163        H  0.68689382  0.07542150  0.91724761     0.15300
H164        H  0.63653798  0.08373601  0.99267078     0.15300
H165        H  0.80267908  0.97330900  0.89696773     0.13600
H166        H  0.75013510  0.97661630  0.82534885     0.13600
H167        H  0.61318780  0.01089047  0.18319776     0.13600
H168        H  0.56183868  0.01005248  0.10947544     0.13600
H169        H  0.70444559  0.99817255  0.03499373     0.26800
H170        H  0.61725226  0.98197499  0.91513512     0.26800
N171        N  0.72674053  0.00740719  0.44800174    -0.35900
N172        N  0.72437509  0.00540220  0.56328139    -0.56500
N173        N  0.64416374  0.00244077  0.56044076    -0.35900
N174        N  0.64644790  0.00899754  0.44567728    -0.56500
C175        C  0.76265782  0.01331509  0.45879316     0.27700
C176        C  0.72143626  0.01627112  0.39652588     0.27700
C177        C  0.64935842  0.00846037  0.61276787     0.27700
C178        C  0.60827415  0.00870272  0.55072761     0.27700
C179        C  0.76066498  0.99902942  0.55547055     0.36300
C180        C  0.71691583  0.99745017  0.61464324     0.36300
C181        C  0.65328570  0.00759472  0.39290535     0.36300
C182        C  0.60998250  0.00322934  0.45221234     0.36300
C183        C  0.78044029  0.02574892  0.41336519    -0.21200
C184        C  0.75451071  0.02751208  0.37413241    -0.21200
C185        C  0.61631824  0.01855214  0.63662859    -0.21200
C186        C  0.59033050  0.01844378  0.59752799    -0.21200
C187        C  0.77626509  0.98696876  0.60214060    -0.22300
C188        C  0.74862691  0.98625291  0.63969837    -0.22300
C189        C  0.62086167  0.00180511  0.36579976    -0.22300
C190        C  0.59347118  0.99896317  0.40335427    -0.22300
C191        C  0.78026725  0.00586131  0.50760124    -0.17600
C192        C  0.68804095  0.01291566  0.36841523    -0.17600
C193        C  0.59092183  0.00394109  0.50136451    -0.17600
C194        C  0.68246334  0.00257360  0.64019875    -0.17600
H195        H  0.80921273  0.03261195  0.40879277     0.15300
H196        H  0.75951452  0.03596816  0.33360172     0.15300
H197        H  0.61127966  0.02470603  0.67811056     0.15300
H198        H  0.56147275  0.02466218  0.60305419     0.15300
H199        H  0.80469178  0.97981137  0.60864841     0.13600
H200        H  0.75154871  0.97852802  0.68082129     0.13600
H201        H  0.61725356  0.99990753  0.32333962     0.13600
H202        H  0.56462990  0.99467554  0.39551095     0.13600
H203        H  0.70790650  0.99426263  0.47256917     0.26800
H204        H  0.66293266  0.99050733  0.53426434     0.26800
O205        O  0.95722883  0.00751162  0.94985835    -0.72300
O206        O  0.06828431  0.99529156  0.95244368    -0.73200
O207        O  0.00681730  0.94645110  0.95105491    -0.61900
O208        O  0.01840013  0.05717218  0.95266597    -0.70300
O209        O  0.01191511  0.05657875  0.04019371    -0.69800
O210        O  0.01018664  0.94597570  0.03880311    -0.61100
O211        O  0.06690593  0.99980884  0.04012221    -0.73600
O212        O  0.95562155  0.00207620  0.03736721    -0.72400
Cu213      Cu  0.01284798  0.00169340  0.94837227     1.04600
Cu214      Cu  0.01117973  0.00119944  0.04212825     1.04300
C215        C  0.93886070  0.00533699  0.99329087     0.93900
C216        C  0.08510179  0.99590027  0.99669784     0.93100
C217        C  0.00711657  0.92879794  0.99482985     0.85200
C218        C  0.01554367  0.07438747  0.99692039     0.91500
O219        O  0.01370854  0.94300040  0.45786147    -0.72300
O220        O  0.01255748  0.05341714  0.45887507    -0.73200
O221        O  0.06835964  0.99858065  0.45710564    -0.61900
O222        O  0.95715919  0.99701077  0.46028367    -0.70300
O223        O  0.95799427  0.00220451  0.54792260    -0.69800
O224        O  0.06847521  0.99395441  0.54478306    -0.61100
O225        O  0.01798277  0.05355827  0.54645896    -0.73600
O226        O  0.00941362  0.94329123  0.54571942    -0.72400
Cu227      Cu  0.01287471  0.99808304  0.45541247     1.04600
Cu228      Cu  0.01342254  0.99830975  0.54929622     1.04300
C229        C  0.01132371  0.92576181  0.50173443     0.93900
C230        C  0.01638069  0.07084735  0.50256792     0.93100
C231        C  0.08584605  0.99535498  0.50052472     0.85200
C232        C  0.94005631  0.99955751  0.50478945     0.91500
N233        N  0.01400645  0.28816465  0.05756490    -0.35900
N234        N  0.00971520  0.36814443  0.05921300    -0.56500
N235        N  0.00327200  0.36790409  0.94448208    -0.35900
N236        N  0.01081082  0.28808535  0.94292495    -0.56500
C237        C  0.02321065  0.29505454  0.10841751     0.27700
C238        C  0.02332833  0.25287096  0.04683981     0.27700
C239        C  0.00829849  0.40424164  0.95357476     0.27700
C240        C  0.00974387  0.36174472  0.89220708     0.27700
C241        C  0.00792105  0.36189597  0.11202369     0.36300
C242        C  0.00166236  0.40409025  0.05219138     0.36300
C243        C  0.00690578  0.25167750  0.95151947     0.36300
C244        C  0.00193373  0.29380807  0.89181178     0.36300
C245        C  0.03841078  0.26371474  0.13033374    -0.21200
C246        C  0.03853599  0.23711669  0.09142965    -0.21200
C247        C  0.01748862  0.42142628  0.90620454    -0.21200
C248        C  0.01862307  0.39459723  0.86762546    -0.21200
C249        C  0.99919018  0.39414180  0.13877763    -0.22300
C250        C  0.99540186  0.42088516  0.10093862    -0.22300
C251        C  0.99543150  0.23420271  0.90565937    -0.22300
C252        C  0.99256425  0.26089757  0.86765561    -0.22300
C253        C  0.01611480  0.32803170  0.13666484    -0.17600
C254        C  0.01605982  0.23377560  0.99914689    -0.17600
C255        C  0.00549900  0.32774223  0.86550897    -0.23600
C256        C  0.00278941  0.42254016  0.00282676    -0.17600
H257        H  0.04802781  0.26022207  0.17043479     0.15300
H258        H  0.04825471  0.20919046  0.09571844     0.15300
H259        H  0.02255113  0.45034714  0.89969945     0.15300
H260        H  0.02467795  0.39893938  0.82600383     0.15300
H261        H  0.99638764  0.39812897  0.18118854     0.13600
H262        H  0.98932099  0.44954094  0.10860843     0.13600
H263        H  0.99034131  0.20516952  0.89988901     0.13600
H264        H  0.98489991  0.25653643  0.82677724     0.13600
H265        H  0.99814368  0.30501521  0.03390594     0.26800
H266        H  0.99204472  0.34921550  0.97108152     0.26800
N267        N  0.01862522  0.28487487  0.55851584    -0.35900
N268        N  0.02094576  0.28402590  0.44368763    -0.56500
N269        N  0.01616268  0.36425973  0.44316504    -0.35900
N270        N  0.01019260  0.36501202  0.55771024    -0.56500
C271        C  0.01325853  0.24856601  0.54938194     0.27700
C272        C  0.01046372  0.29135931  0.61012694     0.27700
C273        C  0.01312856  0.35686466  0.39084574     0.27700
C274        C  0.00563927  0.39960288  0.45095364     0.27700
C275        C  0.02678956  0.24789161  0.45233625     0.36300
C276        C  0.02857853  0.28992862  0.39192527     0.36300
C277        C  0.01491498  0.35994464  0.61024779     0.36300
C278        C  0.01120077  0.40172308  0.54944801     0.36300
C279        C  0.00215050  0.23170417  0.59608524    -0.21200
C280        C  0.00060337  0.25864208  0.63446041    -0.21200
C281        C  0.00105024  0.38804756  0.36485197    -0.21200
C282        C  0.99674151  0.41505677  0.40259013    -0.21200
C283        C  0.03809715  0.23069198  0.40580399    -0.22300
C284        C  0.03938546  0.25738053  0.36753036    -0.22300
C285        C  0.01847325  0.39361893  0.63560728    -0.22300
C286        C  0.01587742  0.42005762  0.59721219    -0.22300
C287        C  0.01979368  0.22981052  0.50083589    -0.17600
C288        C  0.01287899  0.32568724  0.63646006    -0.17600
C289        C  0.00626771  0.41900976  0.49979950    -0.17600
C290        C  0.02258248  0.32339742  0.36525705    -0.17600
H291        H  0.99606217  0.20290050  0.60205658     0.15300
H292        H  0.99296503  0.25456931  0.67561703     0.15300
H293        H  0.99643594  0.39129125  0.32281918     0.15300
H294        H  0.98862277  0.44307299  0.39480206     0.15300
H295        H  0.04433080  0.20186556  0.39992462     0.13600
H296        H  0.04662929  0.25315428  0.32620024     0.13600
H297        H  0.02179525  0.39866819  0.67760354     0.13600
H298        H  0.01695937  0.44941761  0.60396536     0.13600
H299        H  0.03083482  0.30359901  0.53265102     0.26800
H300        H  0.02869078  0.34732713  0.47075801     0.26800
C301        C  0.04257816  0.32043810  0.72470033    -0.11600
C302        C  0.01067093  0.32593305  0.69524438     0.05400
C303        C  0.97680767  0.33124269  0.72169956    -0.06900
C304        C  0.97539748  0.33224020  0.77721796    -0.07600
C305        C  0.00741054  0.32725872  0.80668348    -0.02200
C306        C  0.04107099  0.32078903  0.78018519     0.04600
N307        N  0.07369925  0.31391805  0.80943218     0.67200
H308        H  0.06859639  0.31574582  0.70449570     0.16100
H309        H  0.94929790  0.33638393  0.79743638     0.15800
N310        N  0.94361133  0.33427281  0.69241674     0.74900
O311        O  0.08172208  0.28144036  0.82222421    -0.38600
O312        O  0.09136867  0.34042259  0.82900609    -0.38500
O313        O  0.92665842  0.30555324  0.67887440    -0.39200
O314        O  0.93439904  0.36483840  0.67329243    -0.39300
C315        C  0.04894605  0.34056136  0.22146892    -0.11600
C316        C  0.01790638  0.32676890  0.19549667     0.05400
C317        C  0.98939288  0.31049615  0.22551996    -0.06900
C318        C  0.99191578  0.30875319  0.28063786    -0.07600
C319        C  0.02263128  0.32282113  0.30653306    -0.02200
C320        C  0.05152471  0.33848904  0.27679905     0.04600
N321        N  0.08355204  0.35207409  0.30254487     0.67200
H322        H  0.07123821  0.35259646  0.19864064     0.16100
H323        H  0.96951049  0.29694077  0.30351888     0.15800
N324        N  0.95734516  0.29628593  0.20065008     0.74900
O325        O  0.10699649  0.32973998  0.31985805    -0.38600
O326        O  0.08530422  0.38549238  0.31581403    -0.38500
O327        O  0.95438260  0.26205901  0.19373326    -0.39200
O328        O  0.92906112  0.31620262  0.19822316    -0.39300
C329        C  0.98783129  0.13097522  0.48327895    -0.11600
C330        C  0.01802914  0.11134959  0.50219779     0.05400
C331        C  0.04909652  0.13076781  0.52006537    -0.06900
C332        C  0.04930739  0.16930996  0.51908951    -0.07600
C333        C  0.01886641  0.18890221  0.50079989    -0.02200
C334        C  0.98788747  0.16946420  0.48291645     0.04600
N335        N  0.95591035  0.18848415  0.46569787     0.67200
H336        H  0.96378792  0.11632889  0.46963517     0.16100
H337        H  0.07334001  0.18405203  0.53252590     0.15800
N338        N  0.08114275  0.11179852  0.53724160     0.74900
O339        O  0.95086590  0.19299125  0.41676180    -0.38600
O340        O  0.92953190  0.19341389  0.49783879    -0.38500
O341        O  0.10809096  0.10827872  0.50570103    -0.39200
O342        O  0.08579689  0.10672491  0.58614420    -0.39300
C343        C  0.04320082  0.13448683  0.96972918    -0.11600
C344        C  0.01600990  0.11517103  0.99822934     0.05400
C345        C  0.98968579  0.13527897  0.02813080    -0.06900
C346        C  0.99024300  0.17372242  0.02782161    -0.07600
C347        C  0.01734505  0.19288013  0.99959724    -0.02200
C348        C  0.04456660  0.17308945  0.97138871     0.04600
N349        N  0.07437344  0.19195862  0.94610726     0.67200
H350        H  0.06411036  0.11952432  0.94761131     0.16100
H351        H  0.96928231  0.18879182  0.04972023     0.15800
N352        N  0.96135361  0.11722199  0.05769288     0.74900
O353        O  0.09811487  0.20806270  0.97388936    -0.38600
O354        O  0.07455816  0.19633193  0.89652120    -0.38500
O355        O  0.96514164  0.11315214  0.10696182    -0.39200
O356        O  0.92960042  0.11540331  0.03851239    -0.39300
C357        C  0.83957604  0.97598531  0.48045023    -0.11600
C358        C  0.82141437  0.00439196  0.50802926     0.05400
C359        C  0.84258845  0.03032487  0.53618992    -0.06900
C360        C  0.88109871  0.02794760  0.53524908    -0.07600
C361        C  0.89925694  0.00009611  0.50653662    -0.02200
C362        C  0.87807127  0.97343380  0.47990704     0.04600
N363        N  0.89504373  0.94209225  0.45563647     0.67200
H364        H  0.82366668  0.95523120  0.46004921     0.16100
H365        H  0.89694468  0.04843327  0.55630312     0.15800
N366        N  0.82544052  0.05953448  0.56533289     0.74900
O367        O  0.90109744  0.91401972  0.48339986    -0.38600
O368        O  0.89584556  0.93927984  0.40576811    -0.38500
O369        O  0.82434891  0.05823028  0.61531513    -0.39200
O370        O  0.81925411  0.08963423  0.54250246    -0.39300
C371        C  0.69123614  0.03589131  0.78228313    -0.11600
C372        C  0.67976684  0.00489376  0.81096547     0.05400
C373        C  0.66835360  0.97325540  0.78341401    -0.06900
C374        C  0.66900141  0.97279282  0.72774184    -0.07600
C375        C  0.68120501  0.00358015  0.69917727    -0.02200
C376        C  0.69188028  0.03545467  0.72677937     0.04600
N377        N  0.70312639  0.06761390  0.69865037     0.67200
H378        H  0.70013887  0.06034042  0.80318821     0.16100
H379        H  0.66039210  0.94829728  0.70671315     0.15800
N380        N  0.65623323  0.94147714  0.81161501     0.74900
O381        O  0.67925287  0.08889434  0.67991253    -0.38600
O382        O  0.73652759  0.07212643  0.68654173    -0.38500
O383        O  0.62257044  0.93747026  0.82245494    -0.39200
O384        O  0.67942359  0.91967398  0.83086195    -0.39300
C385        C  0.69643795  0.98730664  0.22253086    -0.11600
C386        C  0.68740127  0.02047919  0.19794090     0.05400
C387        C  0.67906003  0.05153964  0.22959307    -0.06900
C388        C  0.68034241  0.04895356  0.28505842    -0.07600
C389        C  0.68925987  0.01561804  0.30951895    -0.02200
C390        C  0.69698066  0.98455331  0.27780503     0.04600
N391        N  0.70357234  0.94958308  0.30123971     0.67200
H392        H  0.70221542  0.96314369  0.19855261     0.16100
H393        H  0.67373774  0.07282057  0.30920239     0.15800
N394        N  0.66879122  0.08561003  0.20610680     0.74900
O395        O  0.73606242  0.93786496  0.30447321    -0.38600
O396        O  0.67715838  0.92751614  0.30735658    -0.38500
O397        O  0.63525886  0.09417468  0.20417180    -0.39200
O398        O  0.69280294  0.11014871  0.19911975    -0.39300
C399        C  0.83790565  0.02836868  0.96836435    -0.11600
C400        C  0.81999875  0.00018959  0.99634903     0.05400
C401        C  0.84147695  0.97342856  0.02177313    -0.06900
C402        C  0.87995755  0.97619723  0.02086493    -0.07600
C403        C  0.89796484  0.00438770  0.99293462    -0.02200
C404        C  0.87643656  0.03031589  0.96552566     0.04600
N405        N  0.89294082  0.05935848  0.93572651     0.67200
H406        H  0.82175926  0.04901710  0.94838856     0.16100
H407        H  0.89596451  0.95548669  0.04094904     0.15800
N408        N  0.82471906  0.94245288  0.04677301     0.74900
O409        O  0.89966947  0.05422854  0.88707245    -0.38600
O410        O  0.89005590  0.09186952  0.95283030    -0.38500
O411        O  0.82368536  0.94073394  0.09670996    -0.39200
O412        O  0.81939530  0.91365889  0.01986836    -0.39300
C413        C  0.03617555  0.48030138  0.50580710    -0.11600
C414        C  0.00395401  0.45991890  0.49845555     0.05400
C415        C  0.97059371  0.47866724  0.48975477    -0.06900
C416        C  0.97021803  0.51718837  0.48770271    -0.07600
C417        C  0.00244857  0.53741305  0.49573753    -0.02200
C418        C  0.03551209  0.51873301  0.50549583     0.04600
N419        N  0.06843194  0.53851775  0.51643380     0.67200
H420        H  0.06186860  0.46621039  0.51285032     0.16100
H421        H  0.94457726  0.53143871  0.48096142     0.15800
N422        N  0.93686158  0.45906871  0.48408512     0.74900
O423        O  0.07659405  0.54550377  0.56390329    -0.38600
O424        O  0.09244319  0.54226913  0.48040470    -0.38500
O425        O  0.91722406  0.45308052  0.52467139    -0.39200
O426        O  0.92280655  0.45598893  0.43879764    -0.39300
C427        C  0.03109105  0.82569780  0.46957827    -0.11600
C428        C  0.00572539  0.80784444  0.50285145     0.05400
C429        C  0.98246014  0.82913495  0.53611713    -0.06900
C430        C  0.98535985  0.86748726  0.53594771    -0.07600
C431        C  0.01020046  0.88527162  0.50181994    -0.02200
C432        C  0.03311939  0.86404721  0.46817066     0.04600
N433        N  0.05931074  0.88089786  0.43339123     0.67200
H434        H  0.04932838  0.80967284  0.44425621     0.16100
H435        H  0.96723509  0.88352099  0.56143169     0.15800
N436        N  0.95496059  0.81239602  0.56892359     0.74900
O437        O  0.09191223  0.88509466  0.44859139    -0.38600
O438        O  0.05239161  0.88312399  0.38462315    -0.38500
O439        O  0.95850378  0.81302142  0.61863100    -0.39200
O440        O  0.92380996  0.80577244  0.54974341    -0.39300
C441        C  0.03245645  0.48423889  0.99600023    -0.11600
C442        C  0.00033157  0.46344258  0.00279080     0.05400
C443        C  0.96633854  0.48173287  0.00845357    -0.06900
C444        C  0.96504606  0.52022629  0.00796374    -0.07600
C445        C  0.99711485  0.54094686  0.00060234    -0.02200
C446        C  0.03100615  0.52268220  0.99390898     0.04600
N447        N  0.06399327  0.54277134  0.98371174     0.67200
H448        H  0.05866635  0.47044792  0.99111317     0.16100
H449        H  0.93882895  0.53404945  0.01252287     0.15800
N450        N  0.93286590  0.46157595  0.01371101     0.74900
O451        O  0.08575429  0.54907394  0.02120937    -0.38600
O452        O  0.07509501  0.54660943  0.93647899    -0.38500
O453        O  0.91778069  0.45869955  0.05879111    -0.39200
O454        O  0.91451194  0.45442439  0.97283129    -0.39300
C455        C  0.96474463  0.68852640  0.77390980    -0.11600
C456        C  0.99260744  0.67254558  0.80387499     0.05400
C457        C  0.02313078  0.65643638  0.77787023    -0.06900
C458        C  0.02497980  0.65588247  0.72243497    -0.07600
C459        C  0.99708528  0.67185644  0.69250827    -0.02200
C460        C  0.96687676  0.68848980  0.71853658     0.04600
N461        N  0.93820017  0.70538246  0.68916908     0.67200
H462        H  0.94133309  0.70116337  0.79369305     0.16100
H463        H  0.04856986  0.64361766  0.70261444     0.15800
N464        N  0.05306644  0.64196935  0.80731800     0.74900
O465        O  0.91006978  0.68695150  0.67753475    -0.38600
O466        O  0.93753245  0.73989559  0.68474266    -0.38500
O467        O  0.05711883  0.60764035  0.81084656    -0.39200
O468        O  0.07903850  0.66296589  0.82033919    -0.39300
C469        C  0.96424378  0.66685271  0.27777772    -0.11600
C470        C  0.99713494  0.67538840  0.30347476     0.05400
C471        C  0.02785441  0.68663794  0.27317961    -0.06900
C472        C  0.02562731  0.68836258  0.21775202    -0.07600
C473        C  0.99290197  0.67919101  0.19203853    -0.02200
C474        C  0.96194012  0.66887037  0.22241807     0.04600
N475        N  0.92783880  0.66111851  0.19732204     0.67200
H476        H  0.94028798  0.65889142  0.30086799     0.16100
H477        H  0.04953685  0.69643398  0.19463948     0.15800
N478        N  0.06144885  0.69619776  0.29844867     0.74900
O479        O  0.92261746  0.63006966  0.17626736    -0.38600
O480        O  0.90559153  0.68694738  0.18878791    -0.38500
O481        O  0.08255247  0.67122394  0.31453006    -0.39200
O482        O  0.06738861  0.72916487  0.31146497    -0.39300
C483        C  0.97464827  0.87301201  0.96327119    -0.11600
C484        C  0.00224310  0.88840896  0.99473867     0.05400
C485        C  0.02316176  0.86508292  0.02722412    -0.06900
C486        C  0.01688126  0.82713060  0.02652539    -0.07600
C487        C  0.98882565  0.81173531  0.99590659    -0.02200
C488        C  0.96721104  0.83520073  0.96451351     0.04600
N489        N  0.93657177  0.82142154  0.93569695     0.67200
H490        H  0.95771343  0.89067313  0.93918650     0.16100
H491        H  0.03396856  0.80948585  0.05040672     0.15800
N492        N  0.05129990  0.87924430  0.06057086     0.74900
O493        O  0.90538094  0.82096501  0.95801067    -0.38600
O494        O  0.93862880  0.81927623  0.88580446    -0.38500
O495        O  0.04400021  0.88514181  0.10889146    -0.39200
O496        O  0.08440390  0.87584486  0.04612425    -0.39300
C497        C  0.49472274  0.96383773  0.50078518    -0.11600
C498        C  0.47327832  0.99569749  0.49807204     0.05400
C499        C  0.49048154  0.03036533  0.49728283    -0.06900
C500        C  0.52883862  0.03267363  0.49814541    -0.07600
C501        C  0.55029034  0.00078992  0.50098606    -0.02200
C502        C  0.53301493  0.96617105  0.50281979     0.04600
N503        N  0.55403317  0.93324164  0.50746548     0.67200
H504        H  0.48158912  0.93713444  0.50219972     0.16100
H505        H  0.54196731  0.05938061  0.49707627     0.15800
N506        N  0.46928466  0.06336619  0.49626913     0.74900
O507        O  0.55931773  0.91985572  0.55279368    -0.38600
O508        O  0.56020949  0.91377575  0.46680459    -0.38500
O509        O  0.46262638  0.08034603  0.53904810    -0.39200
O510        O  0.46389318  0.07918347  0.45265136    -0.39300
C511        C  0.18401251  0.96634923  0.52838756    -0.11600
C512        C  0.20401159  0.99143693  0.49759145     0.05400
C513        C  0.18510018  0.01802485  0.46806035    -0.06900
C514        C  0.14656538  0.01826781  0.46815698    -0.07600
C515        C  0.12645420  0.99341954  0.49958244    -0.02200
C516        C  0.14559128  0.96751831  0.53035766     0.04600
N517        N  0.12647311  0.94178763  0.56318368     0.67200
H518        H  0.19840098  0.94599406  0.55150982     0.16100
H519        H  0.13231396  0.03884655  0.44527521     0.15800
N520        N  0.20481398  0.04599573  0.44014380     0.74900
O521        O  0.12214610  0.90928120  0.54685456    -0.38600
O522        O  0.12246754  0.94869599  0.61197571    -0.38500
O523        O  0.21012187  0.04313867  0.39078545    -0.39200
O524        O  0.22011012  0.07158499  0.46559385    -0.39300
C525        C  0.53898505  0.97654414  0.01057043    -0.11600
C526        C  0.55303316  0.01140173  0.99750176     0.05400
C527        C  0.52826221  0.03922312  0.98252938    -0.06900
C528        C  0.49037538  0.03199630  0.98080702    -0.07600
C529        C  0.47630277  0.99736640  0.99462461    -0.02200
C530        C  0.50100144  0.96940526  0.00911922     0.04600
N531        N  0.48770016  0.93375977  0.02296492     0.67200
H532        H  0.55756924  0.95496950  0.02262240     0.16100
H533        H  0.47167878  0.05388176  0.97031308     0.15800
N534        N  0.54101186  0.07573254  0.97282562     0.74900
O535        O  0.48283149  0.92558621  0.07109074    -0.38600
O536        O  0.47649228  0.91225889  0.98726040    -0.38500
O537        O  0.54829747  0.08580669  0.92608449    -0.39200
O538        O  0.54890144  0.09645257  0.01130244    -0.39300
C539        C  0.32524231  0.96691407  0.77516043    -0.11600
C540        C  0.33935654  0.99658968  0.80413417     0.05400
C541        C  0.35186641  0.02807750  0.77709035    -0.06900
C542        C  0.35043552  0.02933621  0.72155853    -0.07600
C543        C  0.33652263  0.99947819  0.69260739    -0.02200
C544        C  0.32396432  0.96810214  0.71974984     0.04600
N545        N  0.31140010  0.93665353  0.69109891     0.67200
H546        H  0.31573955  0.94255244  0.79569173     0.16100
H547        H  0.36050807  0.05341093  0.70089299     0.15800
N548        N  0.36610708  0.05879694  0.80573565     0.74900
O549        O  0.33440848  0.91485406  0.67027215    -0.38600
O550        O  0.27785748  0.93372888  0.67991065    -0.38500
O551        O  0.40034738  0.06254752  0.81051417    -0.39200
O552        O  0.34457471  0.07964982  0.83138830    -0.39300
C553        C  0.32633674  0.00635944  0.22140776    -0.11600
C554        C  0.33973642  0.97638457  0.19187383     0.05400
C555        C  0.35285437  0.94516549  0.21854986    -0.06900
C556        C  0.35249045  0.94435514  0.27426209    -0.07600
C557        C  0.33911903  0.97446901  0.30373588    -0.02200
C558        C  0.32627762  0.00570981  0.27689273     0.04600
N559        N  0.31448927  0.03752586  0.30582801     0.67200
H560        H  0.31655553  0.03060908  0.20118984     0.16100
H561        H  0.36268311  0.92032816  0.29457834     0.15800
N562        N  0.36648523  0.91420966  0.18931861     0.74900
O563        O  0.33797837  0.05863550  0.32616356    -0.38600
O564        O  0.28087896  0.04198223  0.31668585    -0.38500
O565        O  0.40036644  0.91173551  0.17889167    -0.39200
O566        O  0.34429722  0.89261652  0.16707915    -0.39300
C567        C  0.18445644  0.96564211  0.97068256    -0.11600
C568        C  0.20400051  0.99133541  0.00100065     0.05400
C569        C  0.18405191  0.01792858  0.03043828    -0.06900
C570        C  0.14549479  0.01844336  0.02900445    -0.07600
C571        C  0.12593230  0.99322803  0.99793190    -0.02200
C572        C  0.14587174  0.96635255  0.96882783     0.04600
N573        N  0.12746888  0.93831912  0.93954573     0.67200
H574        H  0.19931893  0.94474340  0.94842788     0.16100
H575        H  0.13074917  0.03932162  0.05146055     0.15800
N576        N  0.20252932  0.04540067  0.06066707     0.74900
O577        O  0.12457767  0.94156902  0.89000398    -0.38600
O578        O  0.12370243  0.90696591  0.96000818    -0.38500
O579        O  0.20762928  0.07672440  0.04067129    -0.39200
O580        O  0.20504838  0.04157749  0.11017946    -0.39300
loop_ 
_geom_bond_atom_site_label_1 
_geom_bond_atom_site_label_2 
_geom_bond_distance 
_geom_bond_site_symmetry_2 
_ccdc_geom_bond_type 
N1            C6   1.353       .  A
N1            C5   1.357       .  A
N1           H33   1.038       .  S
N2            C9   1.355       .  A
N2           C10   1.352       .  A
N3            C8   1.359       .  A
N3            C7   1.355       .  A
N3           H34   1.038       .  S
N4           C11   1.352       .  A
N4           C12   1.354       .  A
C5           C13   1.386   1_565  A
C5           C21   1.419   1_556  A
C6           C22   1.416       .  A
C6           C14   1.387   1_565  A
C7           C15   1.387       .  A
C7           C24   1.420       .  A
C8           C23   1.422   1_554  A
C8           C16   1.387   1_565  A
C9           C21   1.416       .  A
C9           C17   1.385       .  A
C10          C24   1.416       .  A
C10          C18   1.387       .  A
C11          C19   1.388       .  A
C11          C22   1.417       .  A
C12          C20   1.385       .  A
C12          C23   1.415       .  A
C13          C14   1.376       .  A
C13          H25   1.082       .  S
C14          H26   1.082       .  S
C15          C16   1.378   1_565  A
C15          H27   1.082   1_565  S
C16          H28   1.082       .  S
C17          C18   1.374       .  A
C17          H29   1.082       .  S
C18          H30   1.082       .  S
C19          C20   1.376       .  A
C19          H31   1.082       .  S
C20          H32   1.082       .  S
C21         C568   1.502       .  S
C22         C540   1.488       .  S
C23         C529   1.501       .  S
C24         C554   1.490       .  S
N35          C40   1.354   1_565  A
N35          C39   1.353   1_565  A
N35          H67   1.035       .  S
N36          C43   1.352       .  A
N36          C44   1.352       .  A
N37          C42   1.354       .  A
N37          C41   1.355       .  A
N37          H68   1.035       .  S
N38          C45   1.352       .  A
N38          C46   1.350       .  A
C39          C47   1.389       .  A
C39          C55   1.417   1_545  A
C40          C56   1.414   1_545  A
C40          C48   1.385       .  A
C41          C49   1.387       .  A
C41          C58   1.417       .  A
C42          C57   1.416       .  A
C42          C50   1.387       .  A
C43          C55   1.417       .  A
C43          C51   1.387       .  A
C44          C58   1.415       .  A
C44          C52   1.386       .  A
C45          C53   1.386       .  A
C45          C56   1.411       .  A
C46          C54   1.386       .  A
C46          C57   1.411       .  A
C47          C48   1.377       .  A
C47          H59   1.082       .  S
C48          H60   1.082       .  S
C49          C50   1.375       .  A
C49          H61   1.082       .  S
C50          H62   1.082   1_565  S
C51          C52   1.375       .  A
C51          H63   1.082       .  S
C52          H64   1.082       .  S
C53          C54   1.371       .  A
C53          H65   1.082       .  S
C54          H66   1.082       .  S
C55         C512   1.489       .  S
C56         C543   1.488       .  S
C57         C498   1.483       .  S
C58         C557   1.491       .  S
N69          C74   1.353       .  A
N69          C73   1.355       .  A
N69         H101   1.041       .  S
N70          C77   1.353       .  A
N70          C78   1.352       .  A
N71          C76   1.355   1_655  A
N71          C75   1.353       .  A
N71         H102   1.039       .  S
N72          C79   1.349       .  A
N72          C80   1.351       .  A
C73          C81   1.387   1_655  A
C73          C89   1.417       .  A
C74          C90   1.414       .  A
C74          C82   1.386   1_655  A
C75          C83   1.388   1_655  A
C75          C92   1.417       .  A
C76          C91   1.416   1_454  A
C76          C84   1.386       .  A
C77          C89   1.417   1_554  A
C77          C85   1.387       .  A
C78          C92   1.415       .  A
C78          C86   1.386       .  A
C79          C87   1.386       .  A
C79          C90   1.410       .  A
C80          C88   1.386       .  A
C80          C91   1.411       .  A
C81          C82   1.374       .  A
C81          H93   1.082       .  S
C82          H94   1.082       .  S
C83          C84   1.377       .  A
C83          H95   1.082       .  S
C84          H96   1.082       .  S
C85          C86   1.375       .  A
C85          H97   1.082       .  S
C86          H98   1.082       .  S
C87          C88   1.374       .  A
C87          H99   1.082       .  S
C88         H100   1.082       .  S
C89         C487   1.497       .  S
C90         C456   1.483       .  S
C91         C445   1.488   1_556  S
C92         C473   1.489       .  S
N103        C108   1.355   1_455  A
N103        C107   1.354   1_455  A
N103        H135   1.039       .  S
N104        C111   1.353   1_655  A
N104        C112   1.353   1_655  A
N105        C110   1.353   1_455  A
N105        C109   1.352   1_455  A
N105        H136   1.039       .  S
N106        C113   1.349       .  A
N106        C114   1.349       .  A
C107        C115   1.387       .  A
C107        C123   1.416       .  A
C108        C124   1.418   1_655  A
C108        C116   1.387       .  A
C109        C117   1.387       .  A
C109        C126   1.414   1_655  A
C110        C125   1.413   1_655  A
C110        C118   1.387       .  A
C111        C123   1.415   1_455  A
C111        C119   1.386       .  A
C112        C126   1.415       .  A
C112        C120   1.386       .  A
C113        C121   1.387       .  A
C113        C124   1.411       .  A
C114        C122   1.385       .  A
C114        C125   1.408       .  A
C115        C116   1.375       .  A
C115        H127   1.082       .  S
C116        H128   1.082       .  S
C117        C118   1.376       .  A
C117        H129   1.082       .  S
C118        H130   1.082       .  S
C119        C120   1.375       .  A
C119        H131   1.082       .  S
C120        H132   1.082       .  S
C121        C122   1.373       .  A
C121        H133   1.082       .  S
C122        H134   1.083       .  S
C123        C470   1.490       .  S
C124        C428   1.491       .  S
C125        C459   1.482   1_455  S
C126        C417   1.486       .  S
N137        C142   1.358       .  A
N137        C141   1.360       .  A
N137        H169   1.039   1_545  S
N138        C145   1.350   1_545  A
N138        C146   1.352   1_545  A
N139        C144   1.353       .  A
N139        C143   1.355       .  A
N139        H170   1.045   1_545  S
N140        C147   1.347       .  A
N140        C148   1.353       .  A
C141        C149   1.387       .  A
C141        C157   1.426   1_554  A
C142        C158   1.423       .  A
C142        C150   1.386       .  A
C143        C151   1.383       .  A
C143        C160   1.401       .  A
C144        C159   1.408   1_556  A
C144        C152   1.387       .  A
C145        C157   1.418   1_565  A
C145        C153   1.389       .  A
C146        C160   1.412   1_565  A
C146        C154   1.384       .  A
C147        C155   1.389       .  A
C147        C158   1.415       .  A
C148        C156   1.383       .  A
C148        C159   1.411       .  A
C149        C150   1.377       .  A
C149        H161   1.082       .  S
C150        H162   1.082       .  S
C151        C152   1.373       .  A
C151        H163   1.083       .  S
C152        H164   1.083       .  S
C153        C154   1.378       .  A
C153        H165   1.082       .  S
C154        H166   1.082       .  S
C155        C156   1.380       .  A
C155        H167   1.082       .  S
C156        H168   1.082       .  S
C157        C400   1.501       .  S
C158        C386   1.489       .  S
C159        C526   1.496   1_554  S
C160        C372   1.482       .  S
N171        C176   1.355       .  A
N171        C175   1.356       .  A
N171        H203   1.037   1_545  S
N172        C179   1.354   1_545  A
N172        C180   1.353   1_545  A
N173        C178   1.352       .  A
N173        C177   1.352       .  A
N173        H204   1.038   1_545  S
N174        C181   1.352       .  A
N174        C182   1.353       .  A
C175        C183   1.387       .  A
C175        C191   1.422       .  A
C176        C192   1.420       .  A
C176        C184   1.387       .  A
C177        C185   1.388       .  A
C177        C194   1.414       .  A
C178        C193   1.413       .  A
C178        C186   1.387       .  A
C179        C191   1.418   1_565  A
C179        C187   1.386       .  A
C180        C194   1.416   1_565  A
C180        C188   1.385       .  A
C181        C189   1.387       .  A
C181        C192   1.416       .  A
C182        C190   1.386   1_545  A
C182        C193   1.414       .  A
C183        C184   1.378       .  A
C183        H195   1.082       .  S
C184        H196   1.082       .  S
C185        C186   1.375       .  A
C185        H197   1.082       .  S
C186        H198   1.082       .  S
C187        C188   1.374       .  A
C187        H199   1.082       .  S
C188        H200   1.082       .  S
C189        C190   1.372   1_545  A
C189        H201   1.082   1_545  S
C190        H202   1.082       .  S
C191        C358   1.500       .  S
C192        C389   1.489       .  S
C193        C501   1.484       .  S
C194        C375   1.488       .  S
O205       Cu213   2.037   1_655  S
O205        C215   1.279       .  A
O206       Cu213   2.036   1_565  S
O206        C216   1.280       .  A
O207       Cu213   2.024   1_565  S
O207        C217   1.280       .  A
O208       Cu213   2.032       .  S
O208        C218   1.280       .  A
O209       Cu214   2.016       .  S
O209        C218   1.278   1_554  A
O210       Cu214   2.011   1_565  S
O210        C217   1.277   1_554  A
O211       Cu214   2.030   1_565  S
O211        C216   1.281   1_554  A
O212       Cu214   2.029   1_655  S
O212        C215   1.281   1_554  A
Cu213      Cu214   2.365   1_556  S
C215        C403   1.490       .  S
C216        C571   1.491       .  S
C217        C484   1.481       .  S
C218        C344   1.485       .  S
O219       Cu227   2.006       .  S
O219        C229   1.277       .  A
O220       Cu227   2.015   1_545  S
O220        C230   1.278       .  A
O221       Cu227   2.022       .  S
O221        C231   1.279       .  A
O222       Cu227   2.032   1_655  S
O222        C232   1.280       .  A
O223       Cu228   2.024   1_645  S
O223        C232   1.279   1_545  A
O224       Cu228   2.013       .  S
O224        C231   1.278       .  A
O225       Cu228   2.019   1_545  S
O225        C230   1.278       .  A
O226       Cu228   2.009       .  S
O226        C229   1.278       .  A
Cu227      Cu228   2.368       .  S
C229        C431   1.474       .  S
C230        C330   1.475       .  S
C231        C515   1.481       .  S
C232        C361   1.486   1_565  S
N233        C238   1.354       .  A
N233        C237   1.352       .  A
N233        H265   1.038   1_455  S
N234        C241   1.353       .  A
N234        C242   1.353       .  A
N235        C240   1.354       .  A
N235        C239   1.354       .  A
N235        H266   1.038   1_455  S
N236        C243   1.351       .  A
N236        C244   1.350       .  A
C237        C245   1.388       .  A
C237        C253   1.415       .  A
C238        C254   1.414   1_554  A
C238        C246   1.386       .  A
C239        C247   1.389       .  A
C239        C256   1.419   1_556  A
C240        C255   1.415       .  A
C240        C248   1.386       .  A
C241        C253   1.416       .  A
C241        C249   1.386   1_455  A
C242        C256   1.418       .  A
C242        C250   1.387   1_455  A
C243        C251   1.386   1_455  A
C243        C254   1.413       .  A
C244        C252   1.386   1_455  A
C244        C255   1.410       .  A
C245        C246   1.375       .  A
C245        H257   1.082       .  S
C246        H258   1.082       .  S
C247        C248   1.375       .  A
C247        H259   1.082       .  S
C248        H260   1.082       .  S
C249        C250   1.375       .  A
C249        H261   1.082       .  S
C250        H262   1.082       .  S
C251        C252   1.373       .  A
C251        H263   1.082       .  S
C252        H264   1.082       .  S
C253        C316   1.487       .  S
C254        C347   1.489       .  S
C255        C305   1.485       .  S
C256        C442   1.491       .  S
N267        C272   1.351       .  A
N267        C271   1.355       .  A
N267        H299   1.042       .  S
N268        C275   1.351       .  A
N268        C276   1.350       .  A
N269        C274   1.355       .  A
N269        C273   1.351       .  A
N269        H300   1.041       .  S
N270        C277   1.352       .  A
N270        C278   1.354       .  A
C271        C279   1.387       .  A
C271        C287   1.417       .  A
C272        C288   1.415       .  A
C272        C280   1.388       .  A
C273        C281   1.387       .  A
C273        C290   1.416       .  A
C274        C289   1.418       .  A
C274        C282   1.388   1_455  A
C275        C287   1.412       .  A
C275        C283   1.386       .  A
C276        C290   1.412       .  A
C276        C284   1.387       .  A
C277        C285   1.386       .  A
C277        C288   1.416       .  A
C278        C286   1.387       .  A
C278        C289   1.417       .  A
C279        C280   1.375       .  A
C279        H291   1.082   1_455  S
C280        H292   1.082   1_455  S
C281        C282   1.373   1_455  A
C281        H293   1.082   1_455  S
C282        H294   1.081       .  S
C283        C284   1.373       .  A
C283        H295   1.082       .  S
C284        H296   1.082       .  S
C285        C286   1.373       .  A
C285        H297   1.082       .  S
C286        H298   1.082       .  S
C287        C333   1.489       .  S
C288        C302   1.484       .  S
C289        C414   1.492       .  S
C290        C319   1.481       .  S
C301        C302   1.402       .  A
C301        C306   1.400       .  A
C301        H308   1.084       .  S
C302        C303   1.408   1_455  A
C303        C304   1.401       .  A
C303        N310   1.429       .  S
C304        C305   1.402   1_655  A
C304        H309   1.083       .  S
C305        C306   1.408       .  A
C306        N307   1.429       .  S
N307        O311   1.262       .  A
N307        O312   1.262       .  A
N310        O314   1.262       .  A
N310        O313   1.262       .  A
C315        C316   1.405       .  A
C315        C320   1.402       .  A
C315        H322   1.084       .  S
C316        C317   1.410   1_455  A
C317        C318   1.396       .  A
C317        N324   1.428       .  S
C318        C319   1.398   1_655  A
C318        H323   1.084       .  S
C319        C320   1.407       .  A
C320        N321   1.429       .  S
N321        O325   1.262       .  A
N321        O326   1.262       .  A
N324        O328   1.262       .  A
N324        O327   1.262       .  A
C329        C330   1.401   1_655  A
C329        C334   1.401       .  A
C329        H336   1.084       .  S
C330        C331   1.412       .  A
C331        C332   1.403       .  A
C331        N338   1.429       .  S
C332        C333   1.402       .  A
C332        H337   1.084       .  S
C333        C334   1.410   1_455  A
C334        N335   1.428       .  S
N335        O339   1.262       .  A
N335        O340   1.262       .  A
N338        O342   1.262       .  A
N338        O341   1.262       .  A
C343        C344   1.407       .  A
C343        C348   1.406       .  A
C343        H350   1.084       .  S
C344        C345   1.414   1_456  A
C345        C346   1.399       .  A
C345        N352   1.428       .  S
C346        C347   1.398   1_654  A
C346        H351   1.084       .  S
C347        C348   1.409       .  A
C348        N349   1.430       .  S
N349        O353   1.262       .  A
N349        O354   1.262       .  A
N352        O356   1.261       .  A
N352        O355   1.261       .  A
C357        C358   1.404   1_565  A
C357        C362   1.405       .  A
C357        H364   1.084       .  S
C358        C359   1.413       .  A
C359        C360   1.405       .  A
C359        N366   1.429       .  S
C360        C361   1.404       .  A
C360        H365   1.084       .  S
C361        C362   1.412   1_545  A
C362        N363   1.429       .  S
N363        O367   1.262       .  A
N363        O368   1.261       .  A
N366        O370   1.261       .  A
N366        O369   1.262       .  A
C371        C372   1.404       .  A
C371        C376   1.400       .  A
C371        H378   1.084       .  S
C372        C373   1.407   1_545  A
C373        C374   1.404       .  A
C373        N380   1.428       .  S
C374        C375   1.404   1_565  A
C374        H379   1.083       .  S
C375        C376   1.407       .  A
C376        N377   1.429       .  S
N377        O381   1.262       .  A
N377        O382   1.262       .  A
N380        O384   1.262       .  A
N380        O383   1.262       .  A
C385        C386   1.401   1_565  A
C385        C390   1.399       .  A
C385        H392   1.084       .  S
C386        C387   1.412       .  A
C387        C388   1.404       .  A
C387        N394   1.428       .  S
C388        C389   1.403       .  A
C388        H393   1.084       .  S
C389        C390   1.408   1_545  A
C390        N391   1.427       .  S
N391        O395   1.261       .  A
N391        O396   1.262       .  A
N394        O398   1.262       .  A
N394        O397   1.262       .  A
C399        C400   1.404       .  A
C399        C404   1.406       .  A
C399        H406   1.084       .  S
C400        C401   1.410   1_546  A
C401        C402   1.405       .  A
C401        N408   1.428       .  S
C402        C403   1.405   1_564  A
C402        H407   1.084       .  S
C403        C404   1.415       .  A
C404        N405   1.428       .  S
N405        O409   1.262       .  A
N405        O410   1.261       .  A
N408        O412   1.262       .  A
N408        O411   1.262       .  A
C413        C414   1.402       .  A
C413        C418   1.399       .  A
C413        H420   1.084       .  S
C414        C415   1.413   1_455  A
C415        C416   1.403       .  A
C415        N422   1.429       .  S
C416        C417   1.402   1_655  A
C416        H421   1.084       .  S
C417        C418   1.408       .  A
C418        N419   1.428       .  S
N419        O423   1.262       .  A
N419        O424   1.261       .  A
N422        O426   1.262       .  A
N422        O425   1.262       .  A
C427        C428   1.402       .  A
C427        C432   1.398       .  A
C427        H434   1.084       .  S
C428        C429   1.414   1_455  A
C429        C430   1.400       .  A
C429        N436   1.430       .  S
C430        C431   1.402   1_655  A
C430        H435   1.084       .  S
C431        C432   1.411       .  A
C432        N433   1.429       .  S
N433        O437   1.261       .  A
N433        O438   1.262       .  A
N436        O440   1.262       .  A
N436        O439   1.262       .  A
C441        C442   1.403   1_556  A
C441        C446   1.401       .  A
C441        H448   1.084       .  S
C442        C443   1.411   1_455  A
C443        C444   1.402       .  A
C443        N450   1.428       .  S
C444        C445   1.401       .  A
C444        H449   1.084       .  S
C445        C446   1.410   1_654  A
C446        N447   1.428       .  S
N447        O451   1.262   1_556  A
N447        O452   1.262       .  A
N450        O454   1.262   1_554  A
N450        O453   1.262       .  A
C455        C456   1.401       .  A
C455        C460   1.398       .  A
C455        H462   1.084       .  S
C456        C457   1.410   1_655  A
C457        C458   1.399       .  A
C457        N464   1.429       .  S
C458        C459   1.401   1_455  A
C458        H463   1.084       .  S
C459        C460   1.409       .  A
C460        N461   1.428       .  S
N461        O465   1.262       .  A
N461        O466   1.262       .  A
N464        O468   1.262       .  A
N464        O467   1.262       .  A
C469        C470   1.403       .  A
C469        C474   1.402       .  A
C469        H476   1.083       .  S
C470        C471   1.409   1_655  A
C471        C472   1.403       .  A
C471        N478   1.429       .  S
C472        C473   1.403   1_455  A
C472        H477   1.084       .  S
C473        C474   1.408       .  A
C474        N475   1.428       .  S
N475        O479   1.262       .  A
N475        O480   1.262       .  A
N478        O482   1.262       .  A
N478        O481   1.262       .  A
C483        C484   1.403   1_655  A
C483        C488   1.403       .  A
C483        H490   1.084       .  S
C484        C485   1.412   1_556  A
C485        C486   1.400       .  A
C485        N492   1.428       .  S
C486        C487   1.403   1_454  A
C486        H491   1.084       .  S
C487        C488   1.413       .  A
C488        N489   1.429       .  S
N489        O493   1.262       .  A
N489        O494   1.262       .  A
N492        O496   1.261       .  A
N492        O495   1.262       .  A
C497        C498   1.400       .  A
C497        C502   1.399       .  A
C497        H504   1.084       .  S
C498        C499   1.409   1_565  A
C499        C500   1.400       .  A
C499        N506   1.428       .  S
C500        C501   1.401       .  A
C500        H505   1.084       .  S
C501        C502   1.409   1_545  A
C502        N503   1.428       .  S
N503        O507   1.262       .  A
N503        O508   1.262       .  A
N506        O510   1.262       .  A
N506        O509   1.262       .  A
C511        C512   1.400       .  A
C511        C516   1.400       .  A
C511        H518   1.084       .  S
C512        C513   1.409   1_565  A
C513        C514   1.404       .  A
C513        N520   1.429       .  S
C514        C515   1.406   1_545  A
C514        H519   1.084       .  S
C515        C516   1.413       .  A
C516        N517   1.429       .  S
N517        O521   1.261       .  A
N517        O522   1.262       .  A
N520        O524   1.262       .  A
N520        O523   1.261       .  A
C525        C526   1.407   1_564  A
C525        C530   1.409       .  A
C525        H532   1.083       .  S
C526        C527   1.412       .  A
C527        C528   1.406       .  A
C527        N534   1.429       .  S
C528        C529   1.405   1_545  A
C528        H533   1.084       .  S
C529        C530   1.410   1_556  A
C530        N531   1.428       .  S
N531        O535   1.262       .  A
N531        O536   1.262   1_554  A
N534        O538   1.262   1_556  A
N534        O537   1.262       .  A
C539        C540   1.402       .  A
C539        C544   1.400       .  A
C539        H546   1.084       .  S
C540        C541   1.409   1_565  A
C541        C542   1.403       .  A
C541        N548   1.429       .  S
C542        C543   1.404   1_545  A
C542        H547   1.083       .  S
C543        C544   1.408       .  A
C544        N545   1.429       .  S
N545        O549   1.262       .  A
N545        O550   1.262       .  A
N548        O552   1.262       .  A
N548        O551   1.262       .  A
C553        C554   1.402   1_545  A
C553        C558   1.400       .  A
C553        H560   1.084       .  S
C554        C555   1.409       .  A
C555        C556   1.406       .  A
C555        N562   1.429       .  S
C556        C557   1.405       .  A
C556        H561   1.083       .  S
C557        C558   1.409   1_565  A
C558        N559   1.429       .  S
N559        O563   1.262       .  A
N559        O564   1.261       .  A
N562        O566   1.262       .  A
N562        O565   1.262       .  A
C567        C568   1.404   1_556  A
C567        C572   1.407       .  A
C567        H574   1.084       .  S
C568        C569   1.413   1_565  A
C569        C570   1.405       .  A
C569        N576   1.428       .  S
C570        C571   1.404   1_544  A
C570        H575   1.084       .  S
C571        C572   1.415       .  A
C572        N573   1.429       .  S
N573        O577   1.261       .  A
N573        O578   1.261       .  A
N576        O580   1.262       .  A
N576        O579   1.262       .  A
