geometry optimzed in LAMMPS
_audit_creation_date              2020-11-30 
_audit_creation_method            'lammps2cif' 
_symmetry_space_group_name_H-M    'P1' 
_symmetry_Int_Tables_number       1 
_symmetry_cell_setting            triclinic 
loop_ 
_symmetry_equiv_pos_as_xyz 
  x,y,z 
_cell_length_a                    20.96770919 
_cell_length_b                    24.66367181419108 
_cell_length_c                    37.2229077631302 
_cell_angle_alpha                 89.89520494954897 
_cell_angle_beta                  90.5948917388232 
_cell_angle_gamma                 88.86374399398125 
loop_ 
_atom_site_label 
_atom_site_type_symbol 
_atom_site_fract_x 
_atom_site_fract_y 
_atom_site_fract_z 
_atom_site_charge 
C1          C  0.31007890  0.73248446  0.02607274     0.86600
C2          C  0.30730558  0.69861615  0.99303934    -0.53600
C3          C  0.25354861  0.70795587  0.47305799     0.09500
C4          C  0.21126810  0.75580706  0.48510622     0.20500
C5          C  0.30653888  0.79135193  0.01434712    -0.54300
C6          C  0.25544771  0.80371683  0.49257499     0.09600
C7          C  0.24476768  0.72477623  0.04393470    -0.53900
C8          C  0.19389641  0.73699361  0.02182420     0.10200
H9          H  0.33663239  0.66208253  0.98986223     0.14700
H10         H  0.17031440  0.76590139  0.46697663     0.00500
H11         H  0.34237624  0.81984059  0.52158036     0.15000
H12         H  0.23694008  0.71287383  0.07114070     0.14800
C13         C  0.25932001  0.78445937  0.22418475     0.86600
C14         C  0.26380496  0.72366575  0.21289249    -0.53600
C15         C  0.24560532  0.68851933  0.23920722     0.09500
C16         C  0.23149976  0.71613400  0.27413405     0.20500
C17         C  0.19269740  0.79238603  0.23845450    -0.54300
C18         C  0.17819701  0.75787027  0.26439788     0.09600
C19         C  0.30444562  0.78580897  0.25579297    -0.53900
C20         C  0.29312726  0.74737371  0.28069897     0.10200
H21         H  0.28411925  0.70673298  0.18891236     0.14700
H22         H  0.21957629  0.68802515  0.29575558     0.00500
H23         H  0.16097313  0.82550504  0.23018715     0.15000
H24         H  0.34892591  0.80776980  0.25472771     0.14800
C25         C  0.84929697  0.26749089  0.50210436     0.86600
C26         C  0.83726402  0.32821395  0.50624029    -0.53600
C27         C  0.77528630  0.34261222  0.01214171     0.09500
C28         C  0.73260054  0.29127897  0.01685124     0.20500
C29         C  0.82684249  0.24197467  0.53581405    -0.54300
C30         C  0.76595631  0.24916543  0.04179943     0.09600
C31         C  0.79873875  0.25083585  0.47291797    -0.53900
C32         C  0.73563527  0.26315517  0.48126864     0.10200
H33         H  0.87352410  0.35999866  0.00062596     0.14700
H34         H  0.68435728  0.30122841  0.02536256     0.00500
H35         H  0.85479595  0.21104702  0.54955408     0.15000
H36         H  0.81289329  0.22806781  0.45008562     0.14800
C37         C  0.80976511  0.23433605  0.23567146     0.86600
C38         C  0.74697882  0.24689856  0.21528285    -0.53600
C39         C  0.69326779  0.24753020  0.23610573     0.09500
C40         C  0.70847504  0.23731522  0.27485863     0.20500
C41         C  0.81179786  0.27663453  0.26461581    -0.54300
C42         C  0.75854001  0.27907587  0.28445248     0.09600
C43         C  0.79570933  0.18022722  0.25259449    -0.53900
C44         C  0.74215898  0.18205289  0.27245317     0.10200
H45         H  0.74453183  0.24964697  0.18696677     0.14700
H46         H  0.66801554  0.23972073  0.29286942     0.00500
H47         H  0.85004054  0.30558484  0.26726924     0.15000
H48         H  0.82440555  0.14348382  0.24903218     0.14800
N49         N  0.96763485  0.73263184  0.09610883    -0.03300
C50         C  0.94922875  0.69000980  0.11629432    -0.00800
C51         C  0.91348252  0.71083794  0.14436153    -0.23600
C52         C  0.91227456  0.76734850  0.14106989    -0.23800
C53         C  0.94764862  0.78078381  0.11114313    -0.00900
H54         H  0.89622532  0.68815791  0.16706474     0.12900
H55         H  0.89428277  0.79546974  0.16099480     0.13000
N56         N  0.96413263  0.73372325  0.34654928    -0.03300
C57         C  0.94406818  0.78001410  0.36324401    -0.00800
C58         C  0.91338822  0.76447753  0.39433575    -0.23600
C59         C  0.91675452  0.70794615  0.39627905    -0.23800
C60         C  0.94955849  0.68964750  0.36639332    -0.00900
H61         H  0.89779013  0.79119089  0.41567303     0.12900
H62         H  0.90354748  0.68365042  0.41916364     0.13000
N63         N  0.74040329  0.44962810  0.11555146    -0.03300
C64         C  0.69104798  0.45972205  0.13918973    -0.00800
C65         C  0.71651792  0.46798440  0.17308688    -0.23600
C66         C  0.78177956  0.46167596  0.17079974    -0.23800
C67         C  0.79664387  0.44916189  0.13552310    -0.00900
H68         H  0.69014589  0.47561809  0.19746893     0.12900
H69         H  0.81499479  0.46411653  0.19316845     0.13000
N70         N  0.74255079  0.46070739  0.37385187    -0.03300
C71         C  0.79705629  0.48334998  0.38562063    -0.00800
C72         C  0.78067913  0.52017762  0.41226544    -0.23600
C73         C  0.71451148  0.51778069  0.41691215    -0.23800
C74         C  0.69192825  0.48006008  0.39258299    -0.00900
H75         H  0.81321407  0.54481544  0.42758377     0.12900
H76         H  0.68654416  0.54073820  0.43607667     0.13000
N77         N  0.52117392  0.75522103  0.11139515    -0.03300
C78         C  0.53900944  0.71129957  0.13180345    -0.00800
C79         C  0.56687919  0.73210949  0.16272749    -0.23600
C80         C  0.56471383  0.78888713  0.16014889    -0.23800
C81         C  0.53541101  0.80266389  0.12770022    -0.00900
H82         H  0.58028970  0.70913752  0.18651221     0.12900
H83         H  0.57630045  0.81670566  0.18158067     0.13000
N84         N  0.50851083  0.75089383  0.35757464    -0.03300
C85         C  0.53081837  0.70649455  0.37588911    -0.00800
C86         C  0.56757576  0.72534563  0.40422707    -0.23600
C87         C  0.56599089  0.78207924  0.40257184    -0.23800
C88         C  0.52828453  0.79731312  0.37323410    -0.00900
H89         H  0.58766442  0.70110868  0.42596841     0.12900
H90         H  0.58481217  0.80900114  0.42282134     0.13000
N91         N  0.74074239  0.05098548  0.11479763    -0.03300
C92         C  0.68883092  0.03238421  0.13228916    -0.00800
C93         C  0.70968702  0.99478972  0.15769363    -0.23600
C94         C  0.77600343  0.99125115  0.15547786    -0.23800
C95         C  0.79440815  0.02633968  0.12848138    -0.00900
H96         H  0.68023619  0.97293198  0.17627278     0.12900
H97         H  0.80731595  0.96643966  0.17227801     0.13000
N98         N  0.73635755  0.00550738  0.36092757    -0.03300
C99         C  0.68610889  0.99694760  0.38307005    -0.00800
C100        C  0.71067926  0.97790695  0.41558344    -0.23600
C101        C  0.77728731  0.97776030  0.41310011    -0.23800
C102        C  0.79265221  0.99702583  0.37920037    -0.00900
H103        H  0.68399433  0.97164200  0.43991594     0.12900
H104        H  0.81043201  0.97058174  0.43515412     0.13000
N105        N  0.02695783  0.23172123  0.14834950    -0.03300
C106        C  0.04803542  0.27795495  0.13251830    -0.00800
C107        C  0.08412771  0.26179649  0.10325596    -0.23600
C108        C  0.08174431  0.20542721  0.10092621    -0.23800
C109        C  0.04465780  0.18758046  0.12895910    -0.00900
H110        H  0.10326243  0.28826723  0.08300873     0.12900
H111        H  0.09884807  0.18111784  0.07871765     0.13000
N112        N  0.99822123  0.23339671  0.39765269    -0.03300
C113        C  0.01568722  0.19120303  0.37559490    -0.00800
C114        C  0.03929575  0.21321877  0.34433467    -0.23600
C115        C  0.03448351  0.26920611  0.34685417    -0.23800
C116        C  0.00905388  0.28154007  0.38001322    -0.00900
H117        H  0.05468768  0.19076874  0.32093604     0.12900
H118        H  0.04514557  0.29779479  0.32576765     0.13000
O119        O  0.95744961  0.03068935  0.02418702    -0.80800
O120        O  0.98236095  0.01739866  0.20011187    -0.65500
O121        O  0.00924558  0.02228407  0.09573860    -1.12100
C122        C  0.97976958  0.83643173  0.10660104     1.06100
O123        O  0.02217344  0.93454221  0.21201697    -0.78700
O124        O  0.10430243  0.93438462  0.15133701    -0.66200
Ni125      Ni  0.95933255  0.07409442  0.06843103     1.34900
C126        C  0.12112013  0.94404088  0.11883690     0.84900
O127        O  0.02449799  0.09644555  0.15131591    -0.79200
O128        O  0.96428544  0.12753958  0.10641693    -0.89500
C129        C  0.99605143  0.97876789  0.22259554     0.84400
O130        O  0.87893922  0.04570500  0.08604369    -0.67700
O131        O  0.02811686  0.84867003  0.12565788    -0.87000
C132        C  0.86303826  0.03855083  0.11890595     0.85300
C133        C  0.00998291  0.13411719  0.12884500     1.06800
H134        H  0.92957358  0.94129847  0.14471553     0.38600
O135        O  0.97426002  0.94778441  0.13984856    -1.09600
O136        O  0.08246141  0.93379132  0.09262912    -0.66300
Ni137      Ni  0.98925774  0.94772461  0.08806429     1.26300
O138        O  0.90438837  0.04064483  0.14451243    -0.66500
O139        O  0.96100215  0.87201162  0.08381476    -0.78800
C140        C  0.98621003  0.98782933  0.01329997     0.84600
O141        O  0.00445240  0.95100791  0.03590302    -0.66000
Ni142      Ni  0.02697964  0.89651346  0.16619596     1.27400
Ni143      Ni  0.99581202  0.02187420  0.14749847     1.26100
H144        H  0.05346658  0.02922985  0.09096694     0.39200
O145        O  0.95154278  0.02718131  0.27313339    -0.80800
O146        O  0.98004086  0.01718494  0.44979590    -0.65500
O147        O  0.00391797  0.01961075  0.34485259    -1.12100
C148        C  0.97593558  0.83487364  0.35873520     1.06100
O149        O  0.02208408  0.93521150  0.46211943    -0.78700
O150        O  0.10072437  0.93088227  0.40048523    -0.66200
Ni151      Ni  0.94805345  0.06747818  0.31809783     1.34900
C152        C  0.11743661  0.94010380  0.36808906     0.84900
O153        O  0.01558016  0.09720411  0.39948732    -0.79200
O154        O  0.94841330  0.11945493  0.35628580    -0.89500
C155        C  0.99622605  0.97965709  0.47261992     0.84400
O156        O  0.87303235  0.02843001  0.33585504    -0.67700
O157        O  0.02497388  0.84592659  0.37745566    -0.87000
C158        C  0.85823933  0.02011646  0.36890092     0.85300
C159        C  0.99437595  0.13252601  0.37686922     1.06800
H160        H  0.92876116  0.93739526  0.39536671     0.38600
O161        O  0.97267212  0.94526532  0.39019616    -1.09600
O162        O  0.07867155  0.93105820  0.34181152    -0.66300
Ni163      Ni  0.98564801  0.94481027  0.33813545     1.26300
O164        O  0.89802510  0.03210129  0.39409321    -0.66500
O165        O  0.95845185  0.86933958  0.33494051    -0.78800
C166        C  0.98202180  0.98488565  0.26280898     0.84600
O167        O  0.99940485  0.94790549  0.28563109    -0.66000
Ni168      Ni  0.02485276  0.89483348  0.41708157     1.27400
Ni169      Ni  0.99138062  0.02028466  0.39689334     1.26100
H170        H  0.04760404  0.02776502  0.33924405     0.39200
N171        N  0.24194990  0.96088344  0.13030967    -0.03300
C172        C  0.29251961  0.98254433  0.11349179    -0.01600
C173        C  0.26961774  0.00507402  0.08156497    -0.23600
C174        C  0.20364168  0.99626289  0.07993870    -0.23800
C175        C  0.18720810  0.96771739  0.11059893    -0.00900
H176        H  0.29793989  0.02276653  0.06060938     0.12900
H177        H  0.17201591  0.00719802  0.05782993     0.13000
N178        N  0.23771523  0.95527128  0.38111682    -0.03300
C179        C  0.18392972  0.96185846  0.36039256    -0.00800
C180        C  0.20105132  0.98940234  0.32952379    -0.23600
C181        C  0.26671304  0.99796068  0.33148437    -0.23800
C182        C  0.28891310  0.97590708  0.36364108    -0.00900
H183        H  0.16986875  0.00024931  0.30718918     0.12900
H184        H  0.29541228  0.01573512  0.31071192     0.13000
O185        O  0.45456790  0.96120164  0.22103584    -0.80800
O186        O  0.48284918  0.97106969  0.04530241    -0.65500
O187        O  0.50774605  0.96798782  0.15011644    -1.12100
C188        C  0.47817535  0.15474959  0.13833948     1.06100
O189        O  0.51810624  0.05397206  0.03291660    -0.78700
O190        O  0.60127015  0.05951681  0.09320598    -0.66200
Ni191      Ni  0.45193150  0.92104767  0.17593305     1.34900
C192        C  0.62007591  0.05037444  0.12557097     0.84900
O193        O  0.52138827  0.89089024  0.09635449    -0.79200
O194        O  0.45143614  0.87045851  0.13687164    -0.89500
C195        C  0.49553652  0.00881529  0.02257538     0.84400
O196        O  0.37782587  0.96225949  0.15713618    -0.67700
O197        O  0.52407639  0.14432282  0.11726850    -0.87000
C198        C  0.36213576  0.96854334  0.12385025     0.85300
C199        C  0.50154703  0.85719047  0.11976440     1.06800
H200        H  0.42946918  0.05172035  0.10023192     0.38600
O201        O  0.47399818  0.04361832  0.10499125    -1.09600
O202        O  0.58189175  0.05557443  0.15236955    -0.66300
Ni203      Ni  0.48931759  0.04307960  0.15696400     1.26300
O204        O  0.40242437  0.95702631  0.09914918    -0.66500
O205        O  0.46250235  0.11884047  0.16098413    -0.78800
C206        C  0.48511985  0.00227238  0.23207695     0.84600
O207        O  0.50425821  0.03838334  0.20961887    -0.66000
Ni208      Ni  0.52207694  0.09452569  0.07781352     1.27400
Ni209      Ni  0.49491099  0.96808128  0.09808349     1.26100
H210        H  0.55161610  0.95879749  0.15612298     0.39200
O211        O  0.45132455  0.96099759  0.47115023    -0.80800
O212        O  0.48220202  0.96996144  0.29492051    -0.65500
O213        O  0.50548142  0.96317903  0.40009003    -1.12100
C214        C  0.49951335  0.15011416  0.39043625     1.06100
O215        O  0.52322473  0.05105208  0.28383702    -0.78700
O216        O  0.60226835  0.03608093  0.34485877    -0.66200
Ni217      Ni  0.44922333  0.91898900  0.42629573     1.34900
C218        C  0.62047281  0.02488989  0.37708420     0.84900
O219        O  0.51586497  0.88739265  0.34508002    -0.79200
O220        O  0.44954096  0.86652266  0.38768130    -0.89500
C221        C  0.49734199  0.00784789  0.27268564     0.84400
O222        O  0.37529051  0.95998932  0.40716580    -0.67700
O223        O  0.54576836  0.13488572  0.37066195    -0.87000
C224        C  0.35916269  0.96560251  0.37397222     0.85300
C225        C  0.49685263  0.85316964  0.36830916     1.06800
H226        H  0.43403339  0.05207855  0.35022767     0.38600
O227        O  0.47764112  0.04112114  0.35547737    -1.09600
O228        O  0.58686395  0.04167307  0.40368039    -0.66300
Ni229      Ni  0.49331826  0.03868329  0.40739283     1.26300
O230        O  0.39995355  0.95646159  0.34903794    -0.66500
O231        O  0.47533972  0.11566493  0.41136059    -0.78800
C232        C  0.48474310  0.00056360  0.48216051     0.84600
O233        O  0.50785113  0.03414271  0.45957028    -0.66000
Ni234      Ni  0.53490399  0.08690788  0.32998190     1.27400
Ni235      Ni  0.49316409  0.96494636  0.34795868     1.26100
H236        H  0.54830062  0.95076344  0.40597795     0.39200
N237        N  0.46402396  0.25290575  0.15759210    -0.03300
C238        C  0.44712723  0.30026494  0.14051572    -0.00800
C239        C  0.41521718  0.28683190  0.10909384    -0.23600
C240        C  0.41458458  0.23053051  0.10697843    -0.23800
C241        C  0.44599246  0.21019282  0.13717803    -0.00900
H242        H  0.40121944  0.31458479  0.08774822     0.12900
H243        H  0.40011535  0.20738384  0.08371005     0.13000
N244        N  0.50228233  0.25122942  0.40311465    -0.03300
C245        C  0.47347590  0.20762219  0.38906727    -0.00800
C246        C  0.41885778  0.22592155  0.37116897    -0.23600
C247        C  0.41630099  0.28247516  0.37470507    -0.23800
C248        C  0.46891602  0.29710923  0.39513097    -0.00900
H249        H  0.38608575  0.20147678  0.35584599     0.12900
H250        H  0.38197446  0.30979274  0.36192736     0.13000
O251        O  0.02320259  0.52909909  0.22073658    -0.80800
O252        O  0.01037972  0.51956126  0.04453059    -0.65500
O253        O  0.97676390  0.52059554  0.14821066    -1.12100
C254        C  0.01506661  0.33386934  0.13461916     1.06100
O255        O  0.96072772  0.44299119  0.03206716    -0.78700
O256        O  0.88249203  0.42760025  0.09234112    -0.66200
Ni257      Ni  0.02677278  0.56998238  0.17613445     1.34900
C258        C  0.86593061  0.43485548  0.12496985     0.84900
O259        O  0.96610624  0.59793410  0.09323015    -0.79200
O260        O  0.02734061  0.62324465  0.13787318    -0.89500
C261        C  0.99130304  0.48422687  0.02161736     0.84400
O262        O  0.10434709  0.53137427  0.16093299    -0.67700
O263        O  0.96913080  0.34458355  0.11295248    -0.87000
C264        C  0.12407016  0.52525402  0.12865896     0.85300
C265        C  0.98156031  0.63394897  0.11608387     1.06800
H266        H  0.05832484  0.43895351  0.09878814     0.38600
O267        O  0.01389947  0.44693859  0.10347542    -1.09600
O268        O  0.90759498  0.42996012  0.15056952    -0.66300
Ni269      Ni  0.99932277  0.44538756  0.15507658     1.26300
O270        O  0.08597863  0.53446638  0.10193611    -0.66500
O271        O  0.02973809  0.36947664  0.15805556    -0.78800
C272        C  0.99810776  0.48508988  0.23081716     0.84600
O273        O  0.98469212  0.44769059  0.20779847    -0.66000
Ni274      Ni  0.96388611  0.39816281  0.07540204     1.27400
Ni275      Ni  0.99369706  0.52192420  0.09666506     1.26100
H276        H  0.93204004  0.52776498  0.15247977     0.39200
O277        O  0.02914651  0.53386468  0.46994269    -0.80800
O278        O  0.99945776  0.51687700  0.29335212    -0.65500
O279        O  0.97783067  0.52557954  0.39821388    -1.12100
C280        C  0.98434649  0.33893035  0.38916073     1.06100
O281        O  0.95856201  0.43566776  0.28221687    -0.78700
O282        O  0.87832229  0.45151648  0.34388076    -0.66200
Ni283      Ni  0.03129755  0.57356398  0.42420248     1.34900
C284        C  0.86327217  0.46127410  0.37673555     0.84900
O285        O  0.96471810  0.59912416  0.34157204    -0.79200
O286        O  0.03101876  0.62366800  0.38427635    -0.89500
C287        C  0.98489764  0.47875750  0.27115142     0.84400
O288        O  0.10440529  0.53208215  0.40690639    -0.67700
O289        O  0.93772033  0.35945084  0.37185349    -0.87000
C290        C  0.12044964  0.52362522  0.37416794     0.85300
C291        C  0.98310667  0.63473572  0.36395939     1.06800
H292        H  0.04912905  0.43663570  0.34836949     0.38600
O293        O  0.00588108  0.44743518  0.35410724    -1.09600
O294        O  0.90059873  0.44632650  0.40275623    -0.66300
Ni295      Ni  0.99377656  0.44978364  0.40614970     1.26300
O296        O  0.08097782  0.53219787  0.34812491    -0.66500
O297        O  0.01280071  0.37130512  0.41020056    -0.78800
C298        C  0.00162777  0.49127262  0.48103376     0.84600
O299        O  0.98308582  0.45482622  0.45865030    -0.66000
Ni300      Ni  0.94720512  0.40190038  0.32932403     1.27400
Ni301      Ni  0.98864987  0.52271448  0.34602713     1.26100
H302        H  0.93464602  0.53684138  0.40362637     0.39200
N303        N  0.24487288  0.53094167  0.14296266    -0.03300
C304        C  0.30089673  0.52543492  0.12477596    -0.00800
C305        C  0.28669591  0.50249805  0.09168453    -0.23600
C306        C  0.22084265  0.49555371  0.08976392    -0.23800
C307        C  0.19532598  0.51410430  0.12174794    -0.00900
H308        H  0.32006490  0.49437363  0.07027735     0.12900
H309        H  0.19433148  0.48162923  0.06657400     0.13000
N310        N  0.23842724  0.53228948  0.38550358    -0.03300
C311        C  0.19001846  0.51084592  0.36636220    -0.00800
C312        C  0.21587689  0.48504601  0.33671382    -0.23600
C313        C  0.28216930  0.49077643  0.33907196    -0.23800
C314        C  0.29549685  0.52073850  0.36977681    -0.00900
H315        H  0.18979153  0.46595239  0.31510187     0.12900
H316        H  0.31652967  0.47621324  0.31967979     0.13000
O317        O  0.51382900  0.45599036  0.04157295    -0.80800
O318        O  0.50652823  0.46637095  0.21791204    -0.65500
O319        O  0.47308259  0.46771914  0.11365638    -1.12100
C320        C  0.50855746  0.65456312  0.12920668     1.06100
O321        O  0.46078733  0.54638470  0.23059024    -0.78700
O322        O  0.38232120  0.55508081  0.16842093    -0.66200
Ni323      Ni  0.52194762  0.41687197  0.08646000     1.34900
C324        C  0.36663253  0.54702439  0.13549458     0.84900
O325        O  0.46133977  0.38986088  0.16831362    -0.79200
O326        O  0.52703439  0.36645464  0.12613256    -0.89500
C327        C  0.48907265  0.50270296  0.24089146     0.84400
O328        O  0.59590697  0.45812384  0.10123619    -0.67700
O329        O  0.46133855  0.64391404  0.14922602    -0.87000
C330        C  0.61916446  0.45614446  0.13295859     0.85300
C331        C  0.47983579  0.35459948  0.14553922     1.06800
H332        H  0.55575984  0.54584748  0.16489344     0.38600
O333        O  0.51135955  0.53971585  0.15933167    -1.09600
O334        O  0.40574188  0.55853615  0.11039744    -0.66300
Ni335      Ni  0.49703755  0.54233088  0.10737608     1.26300
O336        O  0.58224677  0.44756298  0.15985005    -0.66500
O337        O  0.52572791  0.61861587  0.10604844    -0.78800
C338        C  0.49371322  0.50236320  0.03112973     0.84600
O339        O  0.48366630  0.54116597  0.05400312    -0.66000
Ni340      Ni  0.45958403  0.58964658  0.18666519     1.27400
Ni341      Ni  0.49012744  0.46508920  0.16545890     1.26100
H342        H  0.42846723  0.46164871  0.10871096     0.39200
O343        O  0.52487151  0.44997480  0.29246831    -0.80800
O344        O  0.50310754  0.47184992  0.46870208    -0.65500
O345        O  0.47865408  0.46286364  0.36406981    -1.12100
C346        C  0.50122528  0.65008258  0.37411912     1.06100
O347        O  0.45093521  0.55018495  0.47867485    -0.78700
O348        O  0.37489148  0.55162599  0.41423615    -0.66200
Ni349      Ni  0.53327054  0.41290251  0.33885459     1.34900
C350        C  0.36159213  0.54124945  0.38117418     0.84900
O351        O  0.47089392  0.38862095  0.42021193    -0.79200
O352        O  0.54187945  0.36695114  0.38018057    -0.89500
C353        C  0.48207772  0.50869262  0.49049582     0.84400
O354        O  0.60504482  0.45453440  0.35437370    -0.67700
O355        O  0.45271177  0.63943465  0.39310150    -0.87000
C356        C  0.62362875  0.46271398  0.38669893     0.85300
C357        C  0.49467214  0.35349552  0.39889220     1.06800
H358        H  0.54998387  0.54959405  0.41436367     0.38600
O359        O  0.50667744  0.54020366  0.40827984    -1.09600
O360        O  0.40301448  0.54967948  0.35660359    -0.66300
Ni361      Ni  0.49613927  0.53788716  0.35617492     1.26300
O362        O  0.58605155  0.45521332  0.41341350    -0.66500
O363        O  0.52080734  0.61386522  0.35222486    -0.78800
C364        C  0.50049926  0.49484088  0.28132752     0.84600
O365        O  0.48594335  0.53311817  0.30349268    -0.66000
Ni366      Ni  0.45016383  0.58950757  0.43286826     1.27400
Ni367      Ni  0.49192505  0.46528110  0.41609557     1.26100
H368        H  0.43489107  0.45423709  0.35858174     0.39200
C369        C  0.70931315  0.08620248  0.27818514    -0.01700
C370        C  0.72414468  0.13678942  0.29339676     0.08000
C371        C  0.74145109  0.14083336  0.32902145    -0.01800
C372        C  0.72825804  0.09977024  0.35114643    -0.01800
C373        C  0.73025074  0.04812529  0.33642078     0.08100
C374        C  0.71727960  0.03999388  0.29981158    -0.02000
Br375      Br  0.70772161  0.96813365  0.28100016    -0.00600
Br376      Br  0.68059990  0.08063160  0.22936474    -0.00700
Br377      Br  0.72689520  0.11288944  0.40183689    -0.00600
Br378      Br  0.82541966  0.16135062  0.33755782    -0.00600
C379        C  0.78744412  0.32741604  0.33914410    -0.01700
C380        C  0.74831054  0.32415616  0.30869582     0.08000
C381        C  0.70886418  0.36884298  0.29894522    -0.01800
C382        C  0.71471441  0.41669642  0.31800988    -0.01800
C383        C  0.74179970  0.41403394  0.35231595     0.08100
C384        C  0.77467995  0.36744103  0.36421388    -0.02000
Br385      Br  0.80333499  0.36016192  0.41367712    -0.00600
Br386      Br  0.86166528  0.28204365  0.34432750    -0.00700
Br387      Br  0.69239526  0.48565314  0.29609526    -0.00600
Br388      Br  0.64593457  0.36752259  0.26180536    -0.00600
C389        C  0.57295430  0.22569066  0.23508411    -0.01700
C390        C  0.62837044  0.25116898  0.22088303     0.08000
C391        C  0.62375099  0.27621604  0.18737430    -0.01800
C392        C  0.57496659  0.26310881  0.16525924    -0.01800
C393        C  0.51803328  0.24910432  0.18012074     0.08100
C394        C  0.51545851  0.23016143  0.21536081    -0.02000
Br395      Br  0.43548744  0.20567517  0.23379449    -0.00600
Br396      Br  0.57098628  0.18126899  0.27762953    -0.00700
Br397      Br  0.59030744  0.24763652  0.11624666    -0.00600
Br398      Br  0.66862752  0.34031040  0.17593909    -0.00600
C399        C  0.92895272  0.21282561  0.22892622    -0.01700
C400        C  0.87012961  0.23431621  0.21509552     0.08000
C401        C  0.86956466  0.26085253  0.18223054    -0.01800
C402        C  0.91717110  0.24904491  0.15879807    -0.01800
C403        C  0.97532989  0.23088245  0.17184650     0.08100
C404        C  0.98279715  0.21299573  0.20712375    -0.02000
Br405      Br  0.06496309  0.18650365  0.22373999    -0.00600
Br406      Br  0.93942677  0.18772096  0.27720054    -0.00700
Br407      Br  0.90158005  0.24851320  0.10884486    -0.00600
Br408      Br  0.83589462  0.33323294  0.18042836    -0.00600
C409        C  0.73125074  0.10002705  0.05868016    -0.01700
C410        C  0.74012493  0.10049922  0.09552211     0.08000
C411        C  0.74681679  0.14904430  0.11416266    -0.01800
C412        C  0.74304757  0.19823187  0.09569012    -0.01800
C413        C  0.73947142  0.19936343  0.05838649     0.08100
C414        C  0.73330147  0.14885885  0.03966017    -0.02000
Br415      Br  0.72922399  0.14077020  0.98896449    -0.00600
Br416      Br  0.72138565  0.03073495  0.03506512    -0.00700
Br417      Br  0.75018720  0.26546711  0.11951531    -0.00600
Br418      Br  0.76889078  0.14576320  0.16392331    -0.00600
C419        C  0.68770038  0.40483732  0.02350706    -0.01700
C420        C  0.74845280  0.39958156  0.00992527     0.08000
C421        C  0.78772531  0.44275522  0.01978708    -0.01800
C422        C  0.77789207  0.46791145  0.05342180    -0.01800
C423        C  0.73465430  0.44318954  0.07698723     0.08100
C424        C  0.68711040  0.41102204  0.06055554    -0.02000
Br425      Br  0.64546117  0.35549504  0.08457859    -0.00600
Br426      Br  0.61462041  0.38335632  0.99566743    -0.00700
Br427      Br  0.81892198  0.53450942  0.06593884    -0.00600
Br428      Br  0.84269570  0.47173895  0.98494318    -0.00600
C429        C  0.61589730  0.25676029  0.40434048    -0.01700
C430        C  0.55983322  0.24942538  0.42248143     0.08000
C431        C  0.55894766  0.23781517  0.45874686    -0.01800
C432        C  0.61566591  0.23986367  0.47852679    -0.01800
C433        C  0.67501982  0.25085448  0.46077749     0.08100
C434        C  0.67332403  0.25377670  0.42295094    -0.02000
Br435      Br  0.74489365  0.24255023  0.39430765    -0.00600
Br436      Br  0.61191809  0.26863610  0.35332801    -0.00700
Br437      Br  0.60602952  0.22126894  0.02820635    -0.00600
Br438      Br  0.47826734  0.21850642  0.48006019    -0.00600
C439        C  0.96843339  0.27912015  0.48969101    -0.01700
C440        C  0.91640504  0.24602371  0.49609660     0.08000
C441        C  0.92198128  0.19316245  0.48327010    -0.01800
C442        C  0.93955860  0.18949613  0.44791378    -0.01800
C443        C  0.98137030  0.22925598  0.43462977     0.08100
C444        C  0.00576565  0.26702640  0.45963309    -0.02000
Br445      Br  0.09032926  0.29545002  0.45508388    -0.00600
Br446      Br  0.00043084  0.32630097  0.02612310    -0.00700
Br447      Br  0.88097584  0.14754250  0.42110470    -0.00600
Br448      Br  0.88774214  0.13145750  0.50744338    -0.00600
C449        C  0.46175212  0.73667097  0.29933130    -0.01700
C450        C  0.45432782  0.74807392  0.33574621     0.08000
C451        C  0.39669111  0.73900670  0.35288677    -0.01800
C452        C  0.34707771  0.71854851  0.33354481    -0.01800
C453        C  0.34880156  0.72117875  0.29707109     0.08100
C454        C  0.40841697  0.72085788  0.27990488    -0.02000
Br455      Br  0.41698749  0.69352569  0.23233875    -0.00600
Br456      Br  0.54383514  0.74229473  0.27721113    -0.00700
Br457      Br  0.32023970  0.65183831  0.34974114    -0.00600
Br458      Br  0.38952366  0.74095207  0.40376065    -0.00600
C459        C  0.07519635  0.74552901  0.34080503    -0.01700
C460        C  0.01694797  0.73463501  0.32406159     0.08000
C461        C  0.00683022  0.74395527  0.28740085    -0.01800
C462        C  0.05785627  0.76036691  0.26674190    -0.01800
C463        C  0.11846747  0.76252545  0.28331972     0.08100
C464        C  0.12346308  0.76549436  0.32013988    -0.02000
Br465      Br  0.17370814  0.82307325  0.33737649    -0.00600
Br466      Br  0.08201765  0.74244219  0.39267505    -0.00700
Br467      Br  0.03930967  0.79377369  0.22112702    -0.00600
Br468      Br  0.92230214  0.73853481  0.26708017    -0.00600
C469        C  0.26558543  0.58865674  0.23394863    -0.01700
C470        C  0.22438573  0.63414443  0.23038279     0.08000
C471        C  0.17966102  0.63458363  0.20270679    -0.01800
C472        C  0.19651396  0.60947244  0.17122633    -0.01800
C473        C  0.23639774  0.56354238  0.17378429     0.08100
C474        C  0.26452184  0.54906060  0.20698998    -0.02000
Br475      Br  0.30249563  0.47816644  0.21442249    -0.00600
Br476      Br  0.32647319  0.58251218  0.27213062    -0.00700
Br477      Br  0.17017974  0.63991255  0.12569443    -0.00600
Br478      Br  0.09624984  0.66331022  0.20994308    -0.00600
C479        C  0.27058925  0.82412179  0.16220836    -0.01700
C480        C  0.26951926  0.83097373  0.19958437     0.08000
C481        C  0.26305581  0.88485021  0.21399213    -0.01800
C482        C  0.24762404  0.92721864  0.19073317    -0.01800
C483        C  0.25211068  0.91800094  0.15416860     0.08100
C484        C  0.27429533  0.86857037  0.14060610    -0.02000
Br485      Br  0.30931810  0.86004197  0.09288026    -0.00600
Br486      Br  0.24365916  0.76170888  0.13739636    -0.00700
Br487      Br  0.22055395  0.99776347  0.20781259    -0.00600
Br488      Br  0.26224605  0.90172020  0.26483937    -0.00600
C489        C  0.41082604  0.74286747  0.10344467    -0.01700
C490        C  0.46968504  0.75193376  0.08797775     0.08000
C491        C  0.48139613  0.74235588  0.05203628    -0.01800
C492        C  0.43088343  0.72702318  0.03037199    -0.01800
C493        C  0.36998808  0.71981798  0.04629641     0.08100
C494        C  0.36549422  0.71768196  0.08328536    -0.02000
Br495      Br  0.32457323  0.65770688  0.10416639    -0.00600
Br496      Br  0.39869854  0.75510975  0.15376335    -0.00700
Br497      Br  0.45085745  0.70691086  0.48205208    -0.00600
Br498      Br  0.56691138  0.74933596  0.03402770    -0.00600
C499        C  0.07802829  0.70960112  0.02050189    -0.01700
C500        C  0.12946297  0.73906326  0.03511404     0.08000
C501        C  0.12348741  0.76357195  0.06836845    -0.01800
C502        C  0.07742262  0.74729555  0.09063551    -0.01800
C503        C  0.02236569  0.72840410  0.07525996     0.08100
C504        C  0.02135975  0.70805412  0.04014340    -0.02000
Br505      Br  0.94561943  0.67520351  0.02121441    -0.00600
Br506      Br  0.08167726  0.67150024  0.47614905    -0.00700
Br507      Br  0.08879051  0.75137298  0.14161024    -0.00600
Br508      Br  0.16240559  0.82976208  0.07890964    -0.00600
C509        C  0.20491451  0.62561188  0.39663380    -0.01700
C510        C  0.22738951  0.57500286  0.40965278     0.08000
C511        C  0.23640034  0.56591634  0.44622859    -0.01800
C512        C  0.23017931  0.60975939  0.46918863    -0.01800
C513        C  0.22869015  0.66252274  0.45383931     0.08100
C514        C  0.21554628  0.67035644  0.41779467    -0.02000
Br515      Br  0.23168008  0.73935555  0.39667454    -0.00600
Br516      Br  0.16740675  0.63538546  0.34948731    -0.00700
Br517      Br  0.22828077  0.59695966  0.52028728    -0.00600
Br518      Br  0.25963170  0.49463347  0.46374998    -0.00600
C519        C  0.21003511  0.89420012  0.47043176    -0.01700
C520        C  0.25593190  0.85167210  0.46965955     0.08000
C521        C  0.30059174  0.85030578  0.44240001    -0.01800
C522        C  0.28504151  0.87621296  0.41049271    -0.01800
C523        C  0.24325089  0.92103083  0.41162664     0.08100
C524        C  0.21115686  0.93375489  0.44347551    -0.02000
Br525      Br  0.17067273  0.00404136  0.44993990    -0.00600
Br526      Br  0.14671194  0.90013920  0.50635883    -0.00700
Br527      Br  0.31781714  0.84947531  0.36571862    -0.00600
Br528      Br  0.38861929  0.84294733  0.45638178    -0.00600
C529        C  0.30922598  0.73217516  0.52596071     0.86600
C530        C  0.30605926  0.69830959  0.49294249    -0.53600
C531        C  0.25486222  0.70796918  0.97306364     0.09500
C532        C  0.21213973  0.75557260  0.98509142     0.20500
C533        C  0.30610524  0.79104450  0.51421859    -0.54300
C534        C  0.25581857  0.80378148  0.99267741     0.09600
C535        C  0.24389866  0.72484833  0.54389947    -0.53900
C536        C  0.19302951  0.73737626  0.52186781     0.10200
H537        H  0.33510517  0.66163012  0.48971793     0.14700
H538        H  0.17120311  0.76547463  0.96691168     0.00500
H539        H  0.34256455  0.82034089  0.02175763     0.15000
H540        H  0.23604170  0.71269491  0.57104382     0.14800
C541        C  0.25788395  0.78410254  0.72380683     0.86600
C542        C  0.26207269  0.72323259  0.71262688    -0.53600
C543        C  0.24448511  0.68818369  0.73916441     0.09500
C544        C  0.23099565  0.71601284  0.77412141     0.20500
C545        C  0.19148748  0.79209189  0.73845621    -0.54300
C546        C  0.17747667  0.75769490  0.76459407     0.09600
C547        C  0.30365105  0.78549414  0.75511669    -0.53900
C548        C  0.29270083  0.74735248  0.78024782     0.10200
H549        H  0.28169059  0.70609974  0.68854527     0.14700
H550        H  0.21946885  0.68802883  0.79589514     0.00500
H551        H  0.15951376  0.82507352  0.73022552     0.15000
H552        H  0.34810651  0.80745330  0.75376542     0.14800
C553        C  0.85016940  0.26923850  0.00175775     0.86600
C554        C  0.83779812  0.32993623  0.00567568    -0.53600
C555        C  0.77481144  0.34114601  0.51261803     0.09500
C556        C  0.73179307  0.29003594  0.51708283     0.20500
C557        C  0.82802195  0.24399160  0.03562854    -0.54300
C558        C  0.76476440  0.24760207  0.54192795     0.09600
C559        C  0.79957790  0.25214860  0.97269320    -0.53900
C560        C  0.73638439  0.26419663  0.98111977     0.10200
H561        H  0.87321376  0.35814429  0.50137981     0.14700
H562        H  0.68363839  0.30028201  0.52562735     0.00500
H563        H  0.85614272  0.21325253  0.04932473     0.15000
H564        H  0.81387693  0.22926790  0.94990303     0.14800
C565        C  0.80887843  0.23489954  0.73568866     0.86600
C566        C  0.74605313  0.24604050  0.71510070    -0.53600
C567        C  0.69235710  0.24671139  0.73588095     0.09500
C568        C  0.70745730  0.23759230  0.77477316     0.20500
C569        C  0.81001489  0.27802860  0.76408803    -0.54300
C570        C  0.75674330  0.28017677  0.78393679     0.09600
C571        C  0.79572383  0.18107223  0.75321992    -0.53900
C572        C  0.74221451  0.18275939  0.77306708     0.10200
H573        H  0.74358911  0.24819802  0.68678423     0.14700
H574        H  0.66671386  0.23987852  0.79259710     0.00500
H575        H  0.84783518  0.30741380  0.76653165     0.15000
H576        H  0.82471068  0.14444780  0.74985476     0.14800
N577        N  0.96738405  0.73237437  0.59664441    -0.03300
C578        C  0.94923863  0.68978518  0.61692900    -0.00800
C579        C  0.91443364  0.71064516  0.64535341    -0.23600
C580        C  0.91330370  0.76715218  0.64208684    -0.23800
C581        C  0.94776884  0.78053297  0.61180460    -0.00900
H582        H  0.89779946  0.68796851  0.66821414     0.12900
H583        H  0.89599473  0.79529443  0.66218608     0.13000
N584        N  0.96478758  0.73372044  0.84792683    -0.03300
C585        C  0.94481726  0.78006326  0.86456485    -0.00800
C586        C  0.91482732  0.76458315  0.89590923    -0.23600
C587        C  0.91832458  0.70801998  0.89792095    -0.23800
C588        C  0.95053072  0.68967895  0.86782615    -0.00900
H589        H  0.89950373  0.79135714  0.91727700     0.12900
H590        H  0.90548728  0.68375105  0.92089114     0.13000
N591        N  0.74003533  0.45032844  0.61567905    -0.03300
C592        C  0.69052092  0.46028747  0.63926281    -0.00800
C593        C  0.71591456  0.46901661  0.67312563    -0.23600
C594        C  0.78125654  0.46306272  0.67087082    -0.23800
C595        C  0.79625507  0.45024418  0.63565075    -0.00900
H596        H  0.68946198  0.47672929  0.69747028     0.12900
H597        H  0.81442309  0.46579420  0.69324399     0.13000
N598        N  0.74210362  0.46164510  0.87335902    -0.03300
C599        C  0.79651753  0.48423715  0.88534623    -0.00800
C600        C  0.77984286  0.52124349  0.91182576    -0.23600
C601        C  0.71364244  0.51882923  0.91627827    -0.23800
C602        C  0.69135799  0.48093718  0.89199220    -0.00900
H603        H  0.81219401  0.54602537  0.92715972     0.12900
H604        H  0.68546288  0.54182605  0.93532576     0.13000
N605        N  0.51979475  0.75544051  0.61135584    -0.03300
C606        C  0.53759323  0.71132338  0.63164412    -0.00800
C607        C  0.56478633  0.73186854  0.66284193    -0.23600
C608        C  0.56229419  0.78864532  0.66059430    -0.23800
C609        C  0.53355623  0.80269410  0.62804790    -0.00900
H610        H  0.57782757  0.70865596  0.68658613     0.12900
H611        H  0.57329694  0.81624011  0.68225448     0.13000
N612        N  0.50849043  0.75164693  0.85730032    -0.03300
C613        C  0.53067013  0.70737628  0.87584098    -0.00800
C614        C  0.56620300  0.72644462  0.90461285    -0.23600
C615        C  0.56408996  0.78313753  0.90302889    -0.23800
C616        C  0.52731567  0.79816054  0.87329569    -0.00900
H617        H  0.58562799  0.70231858  0.92658996     0.12900
H618        H  0.58181736  0.81014438  0.92354777     0.13000
N619        N  0.73988156  0.05025662  0.61524488    -0.03300
C620        C  0.68792013  0.03222755  0.63294894    -0.00800
C621        C  0.70874072  0.99493421  0.65856907    -0.23600
C622        C  0.77507492  0.99109702  0.65625820    -0.23800
C623        C  0.79352528  0.02562287  0.62894269    -0.00900
H624        H  0.67928219  0.97351643  0.67737128     0.12900
H625        H  0.80635804  0.96650414  0.67321529     0.13000
N626        N  0.73595588  0.00605764  0.86142864    -0.03300
C627        C  0.68569130  0.99751879  0.88355931    -0.00800
C628        C  0.71027376  0.97852856  0.91609043    -0.23600
C629        C  0.77690120  0.97834644  0.91359268    -0.23800
C630        C  0.79226635  0.99751650  0.87966350    -0.00900
H631        H  0.68359365  0.97227890  0.94042735     0.12900
H632        H  0.81006291  0.97114583  0.93563594     0.13000
N633        N  0.02533749  0.23160203  0.64813048    -0.03300
C634        C  0.04682575  0.27799399  0.63269911    -0.00800
C635        C  0.08332948  0.26206541  0.60354675    -0.23600
C636        C  0.08070075  0.20570065  0.60088057    -0.23800
C637        C  0.04314579  0.18761051  0.62864941    -0.00900
H638        H  0.10307573  0.28872638  0.58360912     0.12900
H639        H  0.09822496  0.18158133  0.57868692     0.13000
N640        N  0.99797750  0.23362657  0.89744472    -0.03300
C641        C  0.01517719  0.19155321  0.87524994    -0.00800
C642        C  0.03795043  0.21378440  0.84384875    -0.23600
C643        C  0.03257957  0.26975679  0.84638670    -0.23800
C644        C  0.00786664  0.28186404  0.87974752    -0.00900
H645        H  0.05322977  0.19145209  0.82038235     0.12900
H646        H  0.04253199  0.29845480  0.82524377     0.13000
O647        O  0.95599537  0.02964829  0.52407658    -0.80800
O648        O  0.98214856  0.01712143  0.70014122    -0.65500
O649        O  0.00831283  0.02189280  0.59560106    -1.12100
C650        C  0.97971392  0.83615567  0.60685823     1.06100
O651        O  0.02180867  0.93421854  0.71209662    -0.78700
O652        O  0.10384140  0.93454064  0.65130585    -0.66200
Ni653      Ni  0.95794667  0.07334393  0.56826067     1.34900
C654        C  0.12055407  0.94415432  0.61877757     0.84900
O655        O  0.02350850  0.09632604  0.65100159    -0.79200
O656        O  0.96310019  0.12717902  0.60605458    -0.89500
C657        C  0.99574990  0.97847062  0.72266781     0.84400
O658        O  0.87779475  0.04478135  0.58622530    -0.67700
O659        O  0.02819860  0.84871061  0.62567564    -0.87000
C660        C  0.86215265  0.03771636  0.61915239     0.85300
C661        C  0.00877876  0.13393746  0.62849340     1.06800
H662        H  0.92921485  0.94081495  0.64478934     0.38600
O663        O  0.97385780  0.94740485  0.63987318    -1.09600
O664        O  0.08194995  0.93370527  0.59258955    -0.66300
Ni665      Ni  0.98872185  0.94724176  0.58803443     1.26300
O666        O  0.90369130  0.04002438  0.64464655    -0.66500
O667        O  0.96078508  0.87141742  0.58390747    -0.78800
C668        C  0.98543830  0.98706575  0.51319356     0.84600
O669        O  0.00399908  0.95041639  0.53584388    -0.66000
Ni670      Ni  0.02682870  0.89632663  0.66623959     1.27400
Ni671      Ni  0.99519547  0.02157455  0.64741193     1.26100
H672        H  0.05245750  0.02901337  0.59073016     0.39200
O673        O  0.95096889  0.02679517  0.77321939    -0.80800
O674        O  0.98049392  0.01781171  0.94989580    -0.65500
O675        O  0.00352550  0.01965115  0.84488778    -1.12100
C676        C  0.97628031  0.83501402  0.85952273     1.06100
O677        O  0.02209582  0.93571356  0.96235969    -0.78700
O678        O  0.10054034  0.93167097  0.90085584    -0.66200
Ni679      Ni  0.94753888  0.06736041  0.81810542     1.34900
C680        C  0.11722428  0.94068992  0.86844607     0.84900
O681        O  0.01549453  0.09759744  0.89926057    -0.79200
O682        O  0.94800275  0.11958652  0.85616247    -0.89500
C683        C  0.99662915  0.98031707  0.97276494     0.84400
O684        O  0.87255605  0.02849206  0.83611040    -0.67700
O685        O  0.02551088  0.84651127  0.87789805    -0.87000
C686        C  0.85792213  0.02036512  0.86920970     0.85300
C687        C  0.99407132  0.13281109  0.87662436     1.06800
H688        H  0.92874799  0.93768130  0.89574002     0.38600
O689        O  0.97263446  0.94554068  0.89049572    -1.09600
O690        O  0.07856154  0.93131221  0.84216046    -0.66300
Ni691      Ni  0.98545531  0.94475350  0.83840846     1.26300
O692        O  0.89791159  0.03231916  0.89431309    -0.66500
O693        O  0.95846433  0.86909696  0.83554495    -0.78800
C694        C  0.98164338  0.98456440  0.76293038     0.84600
O695        O  0.99909561  0.94763774  0.78581733    -0.66000
Ni696      Ni  0.02501783  0.89531147  0.91745472     1.27400
Ni697      Ni  0.99133537  0.02062495  0.89694211     1.26100
H698        H  0.04716075  0.02783941  0.83918401     0.39200
N699        N  0.24122747  0.96106055  0.63019822    -0.03300
C700        C  0.29172385  0.98289450  0.61345942    -0.01600
C701        C  0.26886768  0.00542913  0.58152142    -0.23600
C702        C  0.20291404  0.99652002  0.57985237    -0.23800
C703        C  0.18652169  0.96790928  0.61049557    -0.00900
H704        H  0.29719997  0.02320696  0.56060163     0.12900
H705        H  0.17128819  0.00745145  0.55774256     0.13000
N706        N  0.23728675  0.95615375  0.88160517    -0.03300
C707        C  0.18358148  0.96258848  0.86079903    -0.00800
C708        C  0.20066198  0.99009606  0.82991457    -0.23600
C709        C  0.26625859  0.99879414  0.83192021    -0.23800
C710        C  0.28841914  0.97686509  0.86412065    -0.00900
H711        H  0.16950505  0.00080501  0.80754159     0.12900
H712        H  0.29497175  0.01652957  0.81113942     0.13000
O713        O  0.45326449  0.96192616  0.72133166    -0.80800
O714        O  0.48215444  0.97098515  0.54542330    -0.65500
O715        O  0.50666658  0.96819544  0.65038990    -1.12100
C716        C  0.47645071  0.15495277  0.63834618     1.06100
O717        O  0.51834924  0.05355540  0.53305172    -0.78700
O718        O  0.60056975  0.05974305  0.59373518    -0.66200
Ni719      Ni  0.45056182  0.92157673  0.67626591     1.34900
C720        C  0.61918460  0.05048587  0.62612111     0.84900
O721        O  0.52000251  0.89087750  0.59673297    -0.79200
O722        O  0.44992587  0.87074043  0.63731731    -0.89500
C723        C  0.49546619  0.00853159  0.52264498     0.84400
O724        O  0.37678688  0.96298127  0.65725144    -0.67700
O725        O  0.52230518  0.14479799  0.61715301    -0.87000
C726        C  0.36123445  0.96900089  0.62392351     0.85300
C727        C  0.49993647  0.85729416  0.62015554     1.06800
H728        H  0.42870429  0.05183847  0.60027319     0.38600
O729        O  0.47319646  0.04368530  0.60510515    -1.09600
O730        O  0.58083993  0.05580867  0.65281438    -0.66300
Ni731      Ni  0.48825221  0.04331271  0.65713075     1.26300
O732        O  0.40153532  0.95722328  0.59929566    -0.66500
O733        O  0.46121486  0.11898005  0.66104172    -0.78800
C734        C  0.48399682  0.00294076  0.73231692     0.84600
O735        O  0.50313530  0.03892030  0.70979511    -0.66000
Ni736      Ni  0.52137822  0.09446012  0.57790658     1.27400
Ni737      Ni  0.49397263  0.96812477  0.59830310     1.26100
H738        H  0.55049530  0.95896794  0.65647331     0.39200
O739        O  0.45134814  0.96114276  0.97128356    -0.80800
O740        O  0.48107515  0.97077258  0.79514180    -0.65500
O741        O  0.50494217  0.96373223  0.90019464    -1.12100
C742        C  0.49926734  0.15064225  0.89091540     1.06100
O743        O  0.52288167  0.05154526  0.78408073    -0.78700
O744        O  0.60188034  0.03649290  0.84523128    -0.66200
Ni745      Ni  0.44871812  0.91948511  0.92635602     1.34900
C746        C  0.62001968  0.02539068  0.87748323     0.84900
O747        O  0.51493187  0.88811748  0.84504163    -0.79200
O748        O  0.44848729  0.86739935  0.88755820    -0.89500
C749        C  0.49647767  0.00854703  0.77291580     0.84400
O750        O  0.37488551  0.96085177  0.90752523    -0.67700
O751        O  0.54544474  0.13545957  0.87103850    -0.87000
C752        C  0.35861977  0.96650256  0.87436249     0.85300
C753        C  0.49574059  0.85390443  0.86820078     1.06800
H754        H  0.43355362  0.05288890  0.85042021     0.38600
O755        O  0.47711534  0.04180428  0.85568781    -1.09600
O756        O  0.58629701  0.04221204  0.90401676    -0.66300
Ni757      Ni  0.49273494  0.03921801  0.90756808     1.26300
O758        O  0.39923989  0.95730388  0.84935756    -0.66500
O759        O  0.47483089  0.11610641  0.91164708    -0.78800
C760        C  0.48448460  0.00090021  0.98221194     0.84600
O761        O  0.50717658  0.03466889  0.95965063    -0.66000
Ni762      Ni  0.53461597  0.08743405  0.83028953     1.27400
Ni763      Ni  0.49241475  0.96565190  0.84809605     1.26100
H764        H  0.54776575  0.95128130  0.90603315     0.39200
N765        N  0.46289154  0.25304102  0.65781779    -0.03300
C766        C  0.44560031  0.30050679  0.64101682    -0.00800
C767        C  0.41228301  0.28723423  0.61002386    -0.23600
C768        C  0.41149696  0.23090773  0.60782058    -0.23800
C769        C  0.44417858  0.21041521  0.63755515    -0.00900
H770        H  0.39734570  0.31509696  0.58893255     0.12900
H771        H  0.39594487  0.20786893  0.58473113     0.13000
N772        N  0.50223220  0.25180207  0.90351676    -0.03300
C773        C  0.47320952  0.20810460  0.88972044    -0.00800
C774        C  0.41800147  0.22616746  0.87231760    -0.23600
C775        C  0.41532529  0.28269843  0.87577039    -0.23800
C776        C  0.46848868  0.29754688  0.89565546    -0.00900
H777        H  0.38488690  0.20156501  0.85735064     0.12900
H778        H  0.38054758  0.30986867  0.86324111     0.13000
O779        O  0.02229187  0.52947127  0.72100361    -0.80800
O780        O  0.00916341  0.51957854  0.54460300    -0.65500
O781        O  0.97612343  0.52056163  0.64847095    -1.12100
C782        C  0.01412422  0.33404769  0.63511472     1.06100
O783        O  0.96162003  0.44199269  0.53202004    -0.78700
O784        O  0.88227882  0.42835437  0.59254597    -0.66200
Ni785      Ni  0.02632360  0.56993782  0.67626426     1.34900
C786        C  0.86552637  0.43550591  0.62518672     0.84900
O787        O  0.96515259  0.59779100  0.59355026    -0.79200
O788        O  0.02741932  0.62266206  0.63778161    -0.89500
C789        C  0.99095953  0.48397109  0.52160155     0.84400
O790        O  0.10354507  0.53079541  0.66111730    -0.67700
O791        O  0.96773798  0.34515555  0.61385352    -0.87000
C792        C  0.12326424  0.52491806  0.62881835     0.85300
C793        C  0.98123889  0.63365699  0.61635773     1.06800
H794        H  0.05780951  0.43893280  0.59905327     0.38600
O795        O  0.01338040  0.44687099  0.60375462    -1.09600
O796        O  0.90699599  0.43005454  0.65086143    -0.66300
Ni797      Ni  0.99878419  0.44543317  0.65541794     1.26300
O798        O  0.08517391  0.53443194  0.60211590    -0.66500
O799        O  0.02931388  0.36952356  0.65850921    -0.78800
C800        C  0.99746746  0.48538596  0.73114004     0.84600
O801        O  0.98419326  0.44787997  0.70816030    -0.66000
Ni802      Ni  0.96344396  0.39794314  0.57582178     1.27400
Ni803      Ni  0.99286013  0.52181577  0.59688039     1.26100
H804        H  0.93143280  0.52776729  0.65281731     0.39200
O805        O  0.03072719  0.53316878  0.97010094    -0.80800
O806        O  0.99897254  0.51718171  0.79370798    -0.65500
O807        O  0.97834435  0.52565353  0.89863691    -1.12100
C808        C  0.98318242  0.33911485  0.88929087     1.06100
O809        O  0.95832845  0.43585095  0.78252836    -0.78700
O810        O  0.87802908  0.45214143  0.84395333    -0.66200
Ni811      Ni  0.03253968  0.57313408  0.92459242     1.34900
C812        C  0.86282986  0.46208206  0.87674715     0.84900
O813        O  0.96524536  0.59947590  0.84232064    -0.79200
O814        O  0.03213482  0.62339281  0.88485975    -0.89500
C815        C  0.98442937  0.47904849  0.77148813     0.84400
O816        O  0.10526136  0.53147122  0.90704479    -0.67700
O817        O  0.93663145  0.35997088  0.87212645    -0.87000
C818        C  0.12109060  0.52316073  0.87427244     0.85300
C819        C  0.98384876  0.63473058  0.86492500     1.06800
H820        H  0.04870945  0.43649763  0.84867972     0.38600
O821        O  0.00551002  0.44747450  0.85439490    -1.09600
O822        O  0.89998360  0.44717781  0.90288955    -0.66300
Ni823      Ni  0.99334664  0.44980232  0.90642797     1.26300
O824        O  0.08137584  0.53181388  0.84832743    -0.66500
O825        O  0.01169199  0.37120063  0.91048474    -0.78800
C826        C  0.00210092  0.49115811  0.98116324     0.84600
O827        O  0.98262051  0.45500142  0.95884744    -0.66000
Ni828      Ni  0.94659338  0.40218418  0.82957922     1.27400
Ni829      Ni  0.98879031  0.52289138  0.84645968     1.26100
H830        H  0.93529813  0.53721594  0.90414707     0.39200
N831        N  0.24409378  0.53037842  0.64315410    -0.03300
C832        C  0.30010781  0.52495359  0.62493187    -0.00800
C833        C  0.28582435  0.50222472  0.59178097    -0.23600
C834        C  0.21996710  0.49533105  0.58985691    -0.23800
C835        C  0.19450543  0.51369738  0.62189554    -0.00900
H836        H  0.31914023  0.49427055  0.57032215     0.12900
H837        H  0.19341396  0.48160527  0.56662727     0.13000
N838        N  0.23910923  0.53215797  0.88549984    -0.03300
C839        C  0.19073333  0.51054089  0.86640204    -0.00800
C840        C  0.21673039  0.48457966  0.83684661    -0.23600
C841        C  0.28302391  0.49053418  0.83918894    -0.23800
C842        C  0.29623150  0.52076253  0.86979923    -0.00900
H843        H  0.19074454  0.46521613  0.81530604     0.12900
H844        H  0.31744791  0.47594234  0.81984082     0.13000
O845        O  0.51335014  0.45583770  0.54169204    -0.80800
O846        O  0.50593480  0.46688555  0.71786277    -0.65500
O847        O  0.47243942  0.46771584  0.61367566    -1.12100
C848        C  0.50728136  0.65454886  0.62880003     1.06100
O849        O  0.46085994  0.54720537  0.73047697    -0.78700
O850        O  0.38170038  0.55481431  0.66847966    -0.66200
Ni851      Ni  0.52122553  0.41673456  0.58656538     1.34900
C852        C  0.36586396  0.54666386  0.63557976     0.84900
O853        O  0.46054314  0.39022815  0.66847528    -0.79200
O854        O  0.52594548  0.36626372  0.62624604    -0.89500
C855        C  0.48885635  0.50341584  0.74078557     0.84400
O856        O  0.59536030  0.45785614  0.60127834    -0.67700
O857        O  0.45992804  0.64366081  0.64863679    -0.87000
C858        C  0.61860046  0.45625953  0.63301438     0.85300
C859        C  0.47871964  0.35475335  0.64576383     1.06800
H860        H  0.55518020  0.54613316  0.66468190     0.38600
O861        O  0.51077296  0.53994690  0.65916703    -1.09600
O862        O  0.40484194  0.55825141  0.61041595    -0.66300
Ni863      Ni  0.49621965  0.54231889  0.60724517     1.26300
O864        O  0.58166175  0.44774574  0.65990651    -0.66500
O865        O  0.52477849  0.61865022  0.60570731    -0.78800
C866        C  0.49292844  0.50207657  0.53118214     0.84600
O867        O  0.48259023  0.54092779  0.55395611    -0.66000
Ni868      Ni  0.45888954  0.58994935  0.68637619     1.27400
Ni869      Ni  0.48951837  0.46536393  0.66544907     1.26100
H870        H  0.42783231  0.46155529  0.60876714     0.39200
O871        O  0.52423923  0.45054569  0.79227377    -0.80800
O872        O  0.50334557  0.47227355  0.96851232    -0.65500
O873        O  0.47857367  0.46363572  0.86386496    -1.12100
C874        C  0.50137787  0.65085836  0.87398663     1.06100
O875        O  0.45208528  0.55096400  0.97865885    -0.78700
O876        O  0.37561415  0.55198862  0.91421829    -0.66200
Ni877      Ni  0.53261575  0.41333012  0.83856430     1.34900
C878        C  0.36219377  0.54172814  0.88114137     0.84900
O879        O  0.47054069  0.38941617  0.91995591    -0.79200
O880        O  0.54119504  0.36706403  0.87979916    -0.89500
C881        C  0.48279640  0.50918844  0.99040644     0.84400
O882        O  0.60462329  0.45470213  0.85393975    -0.67700
O883        O  0.45289399  0.64001897  0.89294000    -0.87000
C884        C  0.62325593  0.46313187  0.88621932     0.85300
C885        C  0.49419789  0.35397645  0.89882260     1.06800
H886        H  0.55050125  0.55006820  0.91420534     0.38600
O887        O  0.50714904  0.54082818  0.90811550    -1.09600
O888        O  0.40341492  0.55060901  0.85653334    -0.66300
Ni889      Ni  0.49649145  0.53865012  0.85601761     1.26300
O890        O  0.58590183  0.45550739  0.91300500    -0.66500
O891        O  0.52127002  0.61466341  0.85215055    -0.78800
C892        C  0.50036759  0.49560162  0.78117702     0.84600
O893        O  0.48628311  0.53400984  0.80333810    -0.66000
Ni894      Ni  0.45078709  0.59015873  0.93276265     1.27400
Ni895      Ni  0.49194513  0.46594202  0.91586823     1.26100
H896        H  0.43474536  0.45519647  0.85841395     0.39200
C897        C  0.71034279  0.08674186  0.77860847    -0.01700
C898        C  0.72441923  0.13740268  0.79395247     0.08000
C899        C  0.74127670  0.14146879  0.82963029    -0.01800
C900        C  0.72784559  0.10036485  0.85168059    -0.01800
C901        C  0.72992319  0.04871220  0.83695365     0.08100
C902        C  0.71790371  0.04055849  0.80027046    -0.02000
Br903      Br  0.70969936  0.96864626  0.78131894    -0.00600
Br904      Br  0.68394840  0.08102492  0.72940681    -0.00700
Br905      Br  0.72637550  0.11345481  0.90232852    -0.00600
Br906      Br  0.82507458  0.16234982  0.83854168    -0.00600
C907        C  0.78597658  0.32819221  0.83861501    -0.01700
C908        C  0.74638507  0.32492556  0.80835978     0.08000
C909        C  0.70700230  0.36963384  0.79869305    -0.01800
C910        C  0.71376150  0.41765507  0.81750282    -0.01800
C911        C  0.74133432  0.41506973  0.85172442     0.08100
C912        C  0.77378189  0.36833257  0.86365652    -0.02000
Br913      Br  0.80253231  0.36100035  0.91309707    -0.00600
Br914      Br  0.86082385  0.28349605  0.84313471    -0.00700
Br915      Br  0.69189396  0.48654114  0.79542060    -0.00600
Br916      Br  0.64290305  0.36771020  0.76215022    -0.00600
C917        C  0.57243778  0.22449007  0.73474305    -0.01700
C918        C  0.62765220  0.25018051  0.72058786     0.08000
C919        C  0.62298247  0.27558715  0.68719741    -0.01800
C920        C  0.57388334  0.26299907  0.66514963    -0.01800
C921        C  0.51707620  0.24898395  0.68014381     0.08100
C922        C  0.51479870  0.22938400  0.71524169    -0.02000
Br923      Br  0.43498056  0.20479266  0.73380339    -0.00600
Br924      Br  0.57116040  0.17932233  0.77694244    -0.00700
Br925      Br  0.58851234  0.24785326  0.61599915    -0.00600
Br926      Br  0.66762041  0.34006469  0.67633769    -0.00600
C927        C  0.92791748  0.21336564  0.72889517    -0.01700
C928        C  0.86918636  0.23509396  0.71515966     0.08000
C929        C  0.86849987  0.26157347  0.68226975    -0.01800
C930        C  0.91575427  0.24939608  0.65868099    -0.01800
C931        C  0.97375743  0.23062434  0.67159889     0.08100
C932        C  0.98143656  0.21282997  0.70688118    -0.02000
Br933      Br  0.06340772  0.18548698  0.72322484    -0.00600
Br934      Br  0.93869749  0.18894558  0.77730866    -0.00700
Br935      Br  0.90010448  0.24966906  0.60866511    -0.00600
Br936      Br  0.83371212  0.33358248  0.68005878    -0.00600
C937        C  0.72859664  0.09904420  0.55914187    -0.01700
C938        C  0.73940424  0.09958839  0.59584723     0.08000
C939        C  0.74733499  0.14811648  0.61432974    -0.01800
C940        C  0.74225802  0.19719466  0.59587981    -0.01800
C941        C  0.73770551  0.19821852  0.55861593     0.08100
C942        C  0.73063338  0.14773371  0.53997811    -0.02000
Br943      Br  0.72529145  0.13948568  0.48924832    -0.00600
Br944      Br  0.71600703  0.02985547  0.53585605    -0.00700
Br945      Br  0.74884337  0.26448816  0.61960831    -0.00600
Br946      Br  0.77296054  0.14513402  0.66363539    -0.00600
C947        C  0.68760338  0.40387137  0.52406212    -0.01700
C948        C  0.74831037  0.39822057  0.51048660     0.08000
C949        C  0.78784435  0.44136261  0.52007029    -0.01800
C950        C  0.77779703  0.46740885  0.55340319    -0.01800
C951        C  0.73444002  0.44324273  0.57716829     0.08100
C952        C  0.68700671  0.41075670  0.56101360    -0.02000
Br953      Br  0.64605791  0.35530252  0.58540215    -0.00600
Br954      Br  0.61416381  0.38279573  0.49642919    -0.00700
Br955      Br  0.81860856  0.53440864  0.56519214    -0.00600
Br956      Br  0.84311625  0.46931679  0.48502854    -0.00600
C957        C  0.61595524  0.25674998  0.90450274    -0.01700
C958        C  0.55994161  0.25015553  0.92281793     0.08000
C959        C  0.55930832  0.23910694  0.95918106    -0.01800
C960        C  0.61635112  0.24066772  0.97874942    -0.01800
C961        C  0.67558736  0.25148125  0.96082451     0.08100
C962        C  0.67355364  0.25405686  0.92300342    -0.02000
Br963      Br  0.74513939  0.24325459  0.89433108    -0.00600
Br964      Br  0.61151954  0.26728960  0.85341388    -0.00700
Br965      Br  0.60459728  0.22120153  0.52806534    -0.00600
Br966      Br  0.47858977  0.22090364  0.98088413    -0.00600
C967        C  0.96938260  0.28068832  0.98902123    -0.01700
C968        C  0.91732571  0.24777873  0.99578119     0.08000
C969        C  0.92302641  0.19459946  0.98351122    -0.01800
C970        C  0.94051957  0.18998487  0.94822122    -0.01800
C971        C  0.98226418  0.22945757  0.93455035     0.08100
C972        C  0.00686375  0.26764044  0.95919001    -0.02000
Br973      Br  0.09162046  0.29556590  0.95430371    -0.00600
Br974      Br  0.99931206  0.32395966  0.52731014    -0.00700
Br975      Br  0.88191444  0.14714672  0.92201726    -0.00600
Br976      Br  0.89085325  0.13308636  0.00870180    -0.00600
C977        C  0.46170687  0.73653234  0.79903863    -0.01700
C978        C  0.45433594  0.74849043  0.83540348     0.08000
C979        C  0.39659174  0.73977342  0.85256116    -0.01800
C980        C  0.34687079  0.71927750  0.83328800    -0.01800
C981        C  0.34856316  0.72177067  0.79682030     0.08100
C982        C  0.40814477  0.72105434  0.77963527    -0.02000
Br983      Br  0.41633358  0.69276690  0.73229298    -0.00600
Br984      Br  0.54398523  0.74069766  0.77697847    -0.00700
Br985      Br  0.32051190  0.65228228  0.84934197    -0.00600
Br986      Br  0.38957460  0.74181242  0.90344090    -0.00600
C987        C  0.07571851  0.74588343  0.84167365    -0.01700
C988        C  0.01733768  0.73450902  0.82526628     0.08000
C989        C  0.00663868  0.74301148  0.78861822    -0.01800
C990        C  0.05715999  0.75946215  0.76758706    -0.01800
C991        C  0.11801437  0.76234233  0.78383873     0.08100
C992        C  0.12356439  0.76576271  0.82064640    -0.02000
Br993      Br  0.17376675  0.82365239  0.83741287    -0.00600
Br994      Br  0.08309599  0.74351627  0.89353945    -0.00700
Br995      Br  0.03740903  0.79236788  0.72196080    -0.00600
Br996      Br  0.92177212  0.73653766  0.76894307    -0.00600
C997        C  0.26493066  0.58818476  0.73412389    -0.01700
C998        C  0.22347837  0.63357847  0.73060864     0.08000
C999        C  0.17857981  0.63367681  0.70302193    -0.01800
C1000       C  0.19564462  0.60879162  0.67150281    -0.01800
C1001       C  0.23561855  0.56292561  0.67400898     0.08100
C1002       C  0.26383283  0.54850130  0.70719729    -0.02000
Br1003     Br  0.30181230  0.47760112  0.71463269    -0.00600
Br1004     Br  0.32626004  0.58222514  0.77208368    -0.00700
Br1005     Br  0.16974713  0.63960818  0.62601783    -0.00600
Br1006     Br  0.09536012  0.66292281  0.71002850    -0.00600
C1007       C  0.26956085  0.82404783  0.66181227    -0.01700
C1008       C  0.26795122  0.83070721  0.69920139     0.08000
C1009       C  0.26188208  0.88456603  0.71371058    -0.01800
C1010       C  0.24697886  0.92713293  0.69052521    -0.01800
C1011       C  0.25143047  0.91804907  0.65395900     0.08100
C1012       C  0.27350803  0.86863506  0.64030409    -0.02000
Br1013     Br  0.30871011  0.86041353  0.59257325    -0.00600
Br1014     Br  0.24370832  0.76154406  0.63678260    -0.00700
Br1015     Br  0.22095742  0.99790562  0.70768946    -0.00600
Br1016     Br  0.26167798  0.90142636  0.76458240    -0.00600
C1017       C  0.40959964  0.74231995  0.60334460    -0.01700
C1018       C  0.46826452  0.75233611  0.58789777     0.08000
C1019       C  0.47994971  0.74357144  0.55184410    -0.01800
C1020       C  0.42988560  0.72704344  0.53023933    -0.01800
C1021       C  0.36913870  0.71920998  0.54611427     0.08100
C1022       C  0.36463068  0.71684388  0.58306630    -0.02000
Br1023     Br  0.32353295  0.65675217  0.60362977    -0.00600
Br1024     Br  0.39741508  0.75400853  0.65373311    -0.00700
Br1025     Br  0.45128143  0.70876376  0.98178114    -0.00600
Br1026     Br  0.56473441  0.75348736  0.53351523    -0.00600
C1027       C  0.07732872  0.70952183  0.52082442    -0.01700
C1028       C  0.12861216  0.73941815  0.53520929     0.08000
C1029       C  0.12277765  0.76392749  0.56847271    -0.01800
C1030       C  0.07714539  0.74733006  0.59094283    -0.01800
C1031       C  0.02205280  0.72812664  0.57572918     0.08100
C1032       C  0.02092587  0.70756935  0.54067022    -0.02000
Br1033     Br  0.94553787  0.67365267  0.52214239    -0.00600
Br1034     Br  0.08262662  0.67156943  0.97583493    -0.00700
Br1035     Br  0.08900260  0.75163184  0.64194456    -0.00600
Br1036     Br  0.16167326  0.83015064  0.57890417    -0.00600
C1037       C  0.20567243  0.62538924  0.89677874    -0.01700
C1038       C  0.22807715  0.57474452  0.90972550     0.08000
C1039       C  0.23785404  0.56565764  0.94624109    -0.01800
C1040       C  0.23226777  0.60952862  0.96922570    -0.01800
C1041       C  0.23040252  0.66231957  0.95386916     0.08100
C1042       C  0.21672768  0.67012883  0.91786828    -0.02000
Br1043     Br  0.23237780  0.73914645  0.89659600    -0.00600
Br1044     Br  0.16763115  0.63519603  0.84977305    -0.00700
Br1045     Br  0.23168042  0.59661305  0.02033709    -0.00600
Br1046     Br  0.26138171  0.49431350  0.96360898    -0.00600
C1047       C  0.20980410  0.89433481  0.97077346    -0.01700
C1048       C  0.25585710  0.85189853  0.96986901     0.08000
C1049       C  0.30045170  0.85085700  0.94258926    -0.01800
C1050       C  0.28474535  0.87693804  0.91077158    -0.01800
C1051       C  0.24292550  0.92172347  0.91204735     0.08100
C1052       C  0.21086952  0.93415166  0.94396264    -0.02000
Br1053     Br  0.17044754  0.00439097  0.95072964    -0.00600
Br1054     Br  0.14615596  0.89975149  0.00654545    -0.00700
Br1055     Br  0.31716901  0.85030407  0.86591488    -0.00600
Br1056     Br  0.38851435  0.84359751  0.95649312    -0.00600
loop_ 
_geom_bond_atom_site_label_1 
_geom_bond_atom_site_label_2 
_geom_bond_distance 
_geom_bond_site_symmetry_2 
_ccdc_geom_bond_type 
C1            C2   1.489   1_554  S
C1            C7   1.543       .  S
C1            C5   1.515       .  S
C1          C493   1.485       .  S
C2            H9   1.088       .  S
C2          C531   1.337       .  D
C3            C4   1.533       .  S
C3          C530   1.337       .  D
C3          C513   1.434       .  S
C4            C6   1.540       .  S
C4          C536   1.497       .  S
C4           H10   1.111       .  S
C5          H539   1.084       .  S
C5          C534   1.358   1_554  D
C6          C533   1.358       .  D
C6          C520   1.457       .  S
C7           H12   1.069       .  S
C7            C8   1.369       .  D
C8          C532   1.497   1_554  S
C8          C500   1.444       .  S
H11         C533   1.084       .  S
C13          C14   1.559       .  S
C13          C19   1.503       .  S
C13          C17   1.509       .  S
C13         C480   1.487       .  S
C14          H21   1.075       .  S
C14          C15   1.369       .  D
C15          C16   1.498       .  S
C15         C470   1.458       .  S
C16          C20   1.535       .  S
C16          C18   1.544       .  S
C16          H22   1.095       .  S
C17          H23   1.085       .  S
C17          C18   1.328       .  D
C18         C463   1.446       .  S
C19          H24   1.089       .  S
C19          C20   1.351       .  D
C20         C453   1.451       .  S
C25          C26   1.522       .  S
C25          C31   1.571       .  S
C25          C29   1.488       .  S
C25         C440   1.513       .  S
C26         H561   1.082       .  S
C26         C555   1.365       .  D
C27          C28   1.575       .  S
C27         C554   1.365       .  D
C27         C420   1.505       .  S
C28          C30   1.544       .  S
C28         C560   1.492   1_554  S
C28          H34   1.087       .  S
C29          H35   1.078       .  S
C29         C558   1.328       .  D
C30         C557   1.328       .  D
C30         C413   1.493       .  S
C31          H36   1.061       .  S
C31          C32   1.390       .  D
C32         C556   1.492       .  S
C32         C433   1.512       .  S
H33         C554   1.082       .  S
C37          C38   1.539       .  S
C37          C43   1.510       .  S
C37          C41   1.502       .  S
C37         C400   1.486       .  S
C38          H45   1.057       .  S
C38          C39   1.374       .  D
C39          C40   1.494       .  S
C39         C390   1.470       .  S
C40          C44   1.526       .  S
C40          C42   1.525       .  S
C40          H46   1.087       .  S
C41          H47   1.088       .  S
C41          C42   1.346       .  D
C42         C380   1.447       .  S
C43          H48   1.087       .  S
C43          C44   1.351       .  D
C44         C370   1.420       .  S
N49          C53   1.374       .  A
N49          C50   1.356       .  A
N49         C503   1.394   1_655  S
C50          C51   1.386       .  A
C50         C265   1.528       .  S
C51          C52   1.399       .  A
C51          H54   1.082       .  S
C52          C53   1.388       .  A
C52          H55   1.082       .  S
C53         C122   1.551       .  S
N56          C60   1.355       .  A
N56          C57   1.362       .  A
N56         C460   1.396   1_655  S
C57          C58   1.387       .  A
C57         C148   1.531       .  S
C58          C59   1.396       .  A
C58          H61   1.082       .  S
C59          C60   1.386       .  A
C59          H62   1.082       .  S
C60         C291   1.517       .  S
N63          C67   1.387       .  A
N63          C64   1.384       .  A
N63         C423   1.449       .  S
C64          C65   1.382       .  A
C64         C330   1.527       .  S
C65          C66   1.378       .  A
C65          H68   1.083       .  S
C66          C67   1.387       .  A
C66          H69   1.082       .  S
C67         C258   1.543       .  S
N70          C74   1.355       .  A
N70          C71   1.351       .  A
N70         C383   1.404       .  S
C71          C72   1.387       .  A
C71         C284   1.521       .  S
C72          C73   1.402       .  A
C72          H75   1.081       .  S
C73          C74   1.386       .  A
C73          H76   1.082       .  S
C74         C356   1.517       .  S
N77          C81   1.356       .  A
N77          C78   1.366       .  A
N77         C490   1.384       .  S
C78          C79   1.389       .  A
C78         C320   1.552       .  S
C79          C80   1.403       .  A
C79          H82   1.082       .  S
C80          C81   1.388       .  A
C80          H83   1.082       .  S
C81         C199   1.535       .  S
N84          C88   1.356       .  A
N84          C85   1.361       .  A
N84         C450   1.393       .  S
C85          C86   1.386       .  A
C85         C346   1.536       .  S
C86          C87   1.400       .  A
C86          H89   1.082       .  S
C87          C88   1.388       .  A
C87          H90   1.082       .  S
C88         C225   1.525       .  S
N91          C95   1.362       .  A
N91          C92   1.361       .  A
N91         C410   1.415       .  S
C92          C93   1.385   1_545  A
C92         C192   1.518       .  S
C93          C94   1.395       .  A
C93          H96   1.082       .  S
C94          C95   1.388   1_565  A
C94          H97   1.082       .  S
C95         C132   1.522       .  S
N98         C102   1.368   1_545  A
N98          C99   1.364   1_545  A
N98         C373   1.394       .  S
C99         C100   1.388       .  A
C99         C218   1.541   1_565  S
C100        C101   1.401       .  A
C100        H103   1.082       .  S
C101        C102   1.391       .  A
C101        H104   1.082       .  S
C102        C158   1.550   1_565  S
N105        C109   1.355       .  A
N105        C106   1.366       .  A
N105        C403   1.399   1_455  S
C106        C107   1.387       .  A
C106        C254   1.533       .  S
C107        C108   1.395       .  A
C107        H110   1.082       .  S
C108        C109   1.384       .  A
C108        H111   1.082       .  S
C109        C133   1.518       .  S
N112        C116   1.380   1_655  A
N112        C113   1.373   1_655  A
N112        C443   1.429       .  S
C113        C114   1.384       .  A
C113        C159   1.524   1_455  S
C114        C115   1.386       .  A
C114        H117   1.082       .  S
C115        C116   1.382       .  A
C115        H118   1.082       .  S
C116        C280   1.538   1_455  S
O119       Ni125   1.966       .  S
O119        C140   1.275   1_545  A
O120       Ni143   1.985       .  S
O120        C129   1.293   1_545  A
O121       Ni125   1.919   1_455  S
O121       Ni143   1.950   1_455  S
O121       Ni137   1.915   1_445  S
O121        H144   0.964       .  S
C122        O139   1.273       .  A
C122        O131   1.273   1_655  A
O123       Ni142   1.951       .  S
O123        C129   1.276   1_455  A
O124       Ni142   1.971       .  S
O124        C126   1.287       .  A
Ni125       O128   1.938       .  S
Ni125       O130   1.957       .  S
C126        C175   1.548       .  S
C126        O136   1.290       .  A
O127       Ni143   1.951   1_455  S
O127        C133   1.279       .  A
O128        C133   1.277   1_655  A
C129        C166   1.536       .  S
O130        C132   1.284       .  A
O131       Ni142   1.917       .  S
C132        O138   1.284       .  A
H134        O135   0.972       .  S
O135       Ni143   1.912   1_565  S
O135       Ni137   1.956       .  S
O135       Ni142   1.924   1_655  S
O136       Ni137   1.983   1_455  S
Ni137       O141   1.973   1_655  S
Ni137       O139   1.976       .  S
O138       Ni143   1.965       .  S
C140        C683   1.538   1_554  S
C140        O141   1.287   1_655  A
O145       Ni151   1.949       .  S
O145        C166   1.275   1_545  A
O146       Ni169   1.987       .  S
O146        C155   1.293   1_545  A
O147       Ni151   1.917   1_455  S
O147       Ni169   1.958   1_455  S
O147       Ni163   1.908   1_445  S
O147        H170   0.967       .  S
C148        O165   1.273       .  A
C148        O157   1.270   1_655  A
O149       Ni168   1.952       .  S
O149        C155   1.277   1_455  A
O150       Ni168   1.944       .  S
O150        C152   1.280       .  A
Ni151       O154   1.916       .  S
Ni151       O156   1.979       .  S
C152        C179   1.533       .  S
C152        O162   1.288       .  A
O153       Ni169   1.976   1_455  S
O153        C159   1.280   1_455  A
O154        C159   1.272       .  A
C155        C668   1.540       .  S
O156        C158   1.289       .  A
O157       Ni168   1.907       .  S
C158        O164   1.287       .  A
H160        O161   0.966       .  S
O161       Ni169   1.915   1_565  S
O161       Ni163   1.960       .  S
O161       Ni168   1.914   1_655  S
O162       Ni163   1.976   1_455  S
Ni163       O167   1.980       .  S
Ni163       O165   1.961       .  S
O164       Ni169   1.975       .  S
C166        O167   1.290       .  A
N171        C175   1.363       .  A
N171        C172   1.355       .  A
N171        C483   1.392       .  S
C172        C173   1.388   1_565  A
C172        C198   1.538       .  S
C173        C174   1.405   1_545  A
C173        H176   1.082       .  S
C174        C175   1.390       .  A
C174        H177   1.082   1_565  S
N178        C182   1.367       .  A
N178        C179   1.367       .  A
N178        C523   1.416       .  S
C179        C180   1.388       .  A
C180        C181   1.398       .  A
C180        H183   1.082   1_565  S
C181        C182   1.386       .  A
C181        H184   1.082   1_565  S
C182        C224   1.535       .  S
O185       Ni191   1.952       .  S
O185        C206   1.276   1_565  A
O186       Ni209   1.979       .  S
O186        C195   1.290   1_565  A
O187       Ni191   1.925       .  S
O187       Ni209   1.953       .  S
O187       Ni203   1.903   1_565  S
O187        H210   0.967       .  S
C188        C241   1.513       .  S
C188        O205   1.272       .  A
C188        O197   1.271       .  A
O189       Ni208   1.951       .  S
O189        C195   1.277       .  A
O190       Ni208   1.937       .  S
O190        C192   1.282       .  A
Ni191       O194   1.918       .  S
Ni191       O196   1.962       .  S
C192        O202   1.291       .  A
O193       Ni209   1.974       .  S
O193        C199   1.281       .  A
O194        C199   1.272       .  A
C195        C760   1.531   1_554  S
O196        C198   1.287       .  A
O197       Ni208   1.917       .  S
C198        O204   1.283       .  A
H200        O201   0.965       .  S
O201       Ni209   1.924   1_545  S
O201       Ni203   1.958       .  S
O201       Ni208   1.919       .  S
O202       Ni203   1.981       .  S
Ni203       O207   1.984       .  S
Ni203       O205   1.947       .  S
O204       Ni209   1.964       .  S
C206        C221   1.537       .  S
C206        O207   1.293       .  A
O211       Ni217   1.967       .  S
O211        C232   1.278   1_565  A
O212       Ni235   1.989       .  S
O212        C221   1.294   1_565  A
O213       Ni217   1.898       .  S
O213       Ni235   1.955       .  S
O213       Ni229   1.895   1_565  S
O213        H236   0.966       .  S
C214        C245   1.510       .  S
C214        O231   1.268       .  A
C214        O223   1.275       .  A
O215       Ni234   1.949       .  S
O215        C221   1.274       .  A
O216       Ni234   1.945       .  S
O216        C218   1.283       .  A
Ni217       O220   1.936       .  S
Ni217       O222   1.961       .  S
C218        O228   1.285       .  A
O219       Ni235   1.965       .  S
O219        C225   1.279       .  A
O220        C225   1.271       .  A
O222        C224   1.284       .  A
O223       Ni234   1.938       .  S
C224        O230   1.286       .  A
H226        O227   0.966       .  S
O227       Ni235   1.922   1_545  S
O227       Ni229   1.957       .  S
O227       Ni234   1.921       .  S
O228       Ni229   1.971       .  S
Ni229       O233   1.965       .  S
Ni229       O231   1.935       .  S
O230       Ni235   1.971       .  S
C232        C723   1.535       .  S
C232        O233   1.284       .  A
N237        C241   1.358       .  A
N237        C238   1.368       .  A
N237        C393   1.404       .  S
C238        C239   1.385       .  A
C238        C331   1.528       .  S
C239        C240   1.391       .  A
C239        H242   1.082       .  S
C240        C241   1.385       .  A
C240        H243   1.082       .  S
N244        C248   1.350       .  A
N244        C245   1.348       .  A
N244        C430   1.399       .  S
C245        C246   1.386       .  A
C246        C247   1.401       .  A
C246        H249   1.082       .  S
C247        C248   1.387       .  A
C247        H250   1.082       .  S
C248        C357   1.508       .  S
O251       Ni257   1.944       .  S
O251        C272   1.273   1_455  A
O252       Ni275   1.976   1_455  S
O252        C261   1.287   1_455  A
O253       Ni257   1.923   1_655  S
O253       Ni275   1.955       .  S
O253       Ni269   1.921       .  S
O253        H276   0.966       .  S
C254        O271   1.279       .  A
C254        O263   1.273   1_455  A
O255       Ni274   1.954       .  S
O255        C261   1.275       .  A
O256       Ni274   1.952       .  S
O256        C258   1.279       .  A
Ni257       O260   1.936       .  S
Ni257       O262   1.958       .  S
C258        O268   1.290       .  A
O259       Ni275   1.954       .  S
O259        C265   1.275       .  A
O260        C265   1.274   1_455  A
C261        C826   1.535   1_654  S
O262        C264   1.283       .  A
O263       Ni274   1.923       .  S
C264        C307   1.538       .  S
C264        O270   1.286       .  A
H266        O267   0.966       .  S
O267       Ni275   1.905   1_455  S
O267       Ni269   1.948   1_455  S
O267       Ni274   1.916   1_455  S
O268       Ni269   1.973       .  S
Ni269       O273   1.990       .  S
Ni269       O271   1.968   1_655  S
O270       Ni275   1.973   1_455  S
C272        C287   1.538       .  S
C272        O273   1.293       .  A
O277       Ni283   1.964       .  S
O277        C298   1.278       .  A
O278       Ni301   1.981       .  S
O278        C287   1.292       .  A
O279       Ni283   1.905   1_655  S
O279       Ni301   1.959       .  S
O279       Ni295   1.914       .  S
O279        H302   0.965       .  S
C280        O297   1.272   1_655  A
C280        O289   1.262       .  A
O281       Ni300   1.959       .  S
O281        C287   1.277       .  A
O282       Ni300   1.956       .  S
O282        C284   1.288       .  A
Ni283       O286   1.931       .  S
Ni283       O288   1.942       .  S
C284        O294   1.288       .  A
O285       Ni301   1.947       .  S
O285        C291   1.274       .  A
O286        C291   1.276   1_455  A
O288        C290   1.284       .  A
O289       Ni300   1.911       .  S
C290        C311   1.517       .  S
C290        O296   1.283       .  A
H292        O293   0.966       .  S
O293       Ni301   1.907   1_455  S
O293       Ni295   1.957   1_455  S
O293       Ni300   1.913   1_455  S
O294       Ni295   1.960       .  S
Ni295       O299   1.973       .  S
Ni295       O297   1.974   1_655  S
O296       Ni301   1.955   1_455  S
C298        C789   1.540   1_455  S
C298        O299   1.290   1_455  A
N303        C307   1.370       .  A
N303        C304   1.366       .  A
N303        C473   1.413       .  S
C304        C305   1.388       .  A
C304        C324   1.537       .  S
C305        C306   1.396       .  A
C305        H308   1.082       .  S
C306        C307   1.385       .  A
C306        H309   1.082       .  S
N310        C314   1.363       .  A
N310        C311   1.351       .  A
N310        C510   1.403       .  S
C311        C312   1.385       .  A
C312        C313   1.402       .  A
C312        H315   1.082       .  S
C313        C314   1.391       .  A
C313        H316   1.082       .  S
C314        C350   1.540       .  S
O317       Ni323   1.932       .  S
O317        C338   1.270       .  A
O318       Ni341   1.979       .  S
O318        C327   1.290       .  A
O319       Ni323   1.903       .  S
O319       Ni341   1.958       .  S
O319       Ni335   1.932       .  S
O319        H342   0.966       .  S
C320        O337   1.287       .  A
C320        O329   1.276       .  A
O321       Ni340   1.950       .  S
O321        C327   1.276       .  A
O322       Ni340   1.961       .  S
O322        C324   1.283       .  A
Ni323       O326   1.930       .  S
Ni323       O328   1.947       .  S
C324        O334   1.285       .  A
O325       Ni341   1.966       .  S
O325        C331   1.273       .  A
O326        C331   1.270       .  A
C327        C364   1.533       .  S
O328        C330   1.273       .  A
O329       Ni340   1.932       .  S
C330        O336   1.291       .  A
H332        O333   0.967       .  S
O333       Ni341   1.916       .  S
O333       Ni335   1.955       .  S
O333       Ni340   1.925       .  S
O334       Ni335   1.952       .  S
Ni335       O339   2.004       .  S
Ni335       O337   1.987       .  S
O336       Ni341   1.984       .  S
C338        C881   1.539   1_554  S
C338        O339   1.298       .  A
O343       Ni349   1.957       .  S
O343        C364   1.276       .  A
O344       Ni367   1.977       .  S
O344        C353   1.293       .  A
O345       Ni349   1.919       .  S
O345       Ni367   1.955       .  S
O345       Ni361   1.916       .  S
O345        H368   0.966       .  S
C346        O363   1.275       .  A
C346        O355   1.276       .  A
O347       Ni366   1.960       .  S
O347        C353   1.278       .  A
O348       Ni366   1.971       .  S
O348        C350   1.286       .  A
Ni349       O352   1.914       .  S
Ni349       O354   1.923       .  S
C350        O360   1.287       .  A
O351       Ni367   1.956       .  S
O351        C357   1.274       .  A
O352        C357   1.266       .  A
C353        C866   1.537       .  S
O354        C356   1.279       .  A
O355       Ni366   1.926       .  S
C356        O362   1.290       .  A
H358        O359   0.966       .  S
O359       Ni367   1.902       .  S
O359       Ni361   1.951       .  S
O359       Ni366   1.921       .  S
O360       Ni361   1.969       .  S
Ni361       O365   1.974       .  S
Ni361       O363   1.960       .  S
O362       Ni367   1.988       .  S
C364        O365   1.289       .  A
C369        C370   1.410       .  A
C369        C374   1.400       .  A
C369       Br376   1.914       .  S
C370        C371   1.375       .  A
C371        C372   1.339       .  A
C371       Br378   1.866       .  S
C372        C373   1.388       .  A
C372       Br377   1.915       .  S
C373        C374   1.402       .  A
C374       Br375   1.920   1_545  S
C379        C380   1.396       .  A
C379        C384   1.384       .  A
C379       Br386   1.907       .  S
C380        C381   1.409       .  A
C381        C382   1.385       .  A
C381       Br388   1.902       .  S
C382        C383   1.393       .  A
C382       Br387   1.932       .  S
C383        C384   1.397       .  A
C384       Br385   1.938       .  S
C389        C390   1.437       .  A
C389        C394   1.407       .  A
C389       Br396   1.925       .  S
C390        C391   1.392       .  A
C391        C392   1.351       .  A
C391       Br398   1.905       .  S
C392        C393   1.371       .  A
C392       Br397   1.894       .  S
C393        C394   1.394       .  A
C394       Br395   1.926       .  S
C399        C400   1.424       .  A
C399        C404   1.397       .  A
C399       Br406   1.909       .  S
C400        C401   1.386       .  A
C401        C402   1.360       .  A
C401       Br408   1.907       .  S
C402        C403   1.374       .  A
C402       Br407   1.885       .  S
C403        C404   1.391       .  A
C404       Br405   1.926   1_655  S
C409        C410   1.382       .  A
C409        C414   1.398       .  A
C409       Br416   1.937       .  S
C410        C411   1.394       .  A
C411        C412   1.394       .  A
C411       Br418   1.906       .  S
C412        C413   1.390       .  A
C412       Br417   1.890       .  S
C413        C414   1.436       .  A
C414       Br415   1.899   1_554  S
C419        C420   1.379       .  A
C419        C424   1.388       .  A
C419       Br426   1.925   1_554  S
C420        C421   1.406       .  A
C421        C422   1.414       .  A
C421       Br428   1.893   1_554  S
C422        C423   1.414       .  A
C422       Br427   1.925       .  S
C423        C424   1.420       .  A
C424       Br425   1.870       .  S
C429        C430   1.377       .  A
C429        C434   1.384       .  A
C429       Br436   1.921       .  S
C430        C431   1.380       .  A
C431        C432   1.394       .  A
C431       Br438   1.943       .  S
C432        C433   1.445       .  A
C432       Br965   1.917       .  S
C433        C434   1.410       .  A
C434       Br435   1.866       .  S
Br437       C960   1.917   1_554  S
C439        C440   1.398       .  A
C439        C444   1.401   1_655  A
C439       Br974   1.902       .  S
C440        C441   1.392       .  A
C441        C442   1.373       .  A
C441       Br448   1.922       .  S
C442        C443   1.420       .  A
C442       Br447   1.898       .  S
C443        C444   1.417   1_655  A
C444       Br445   1.929       .  S
Br446       C967   1.901   1_454  S
C449        C450   1.395       .  A
C449        C454   1.388       .  A
C449       Br456   1.923       .  S
C450        C451   1.394       .  A
C451        C452   1.364       .  A
C451       Br458   1.902       .  S
C452        C453   1.360       .  A
C452       Br457   1.851       .  S
C453        C454   1.410       .  A
C454       Br455   1.905       .  S
C459        C460   1.396       .  A
C459        C464   1.376       .  A
C459       Br466   1.936       .  S
C460        C461   1.397       .  A
C461        C462   1.390       .  A
C461       Br468   1.927   1_455  S
C462        C463   1.409       .  A
C462       Br467   1.919       .  S
C463        C464   1.376       .  A
C464       Br465   1.894       .  S
C469        C470   1.408       .  A
C469        C474   1.402       .  A
C469       Br476   1.904       .  S
C470        C471   1.386       .  A
C471        C472   1.373       .  A
C471       Br478   1.896       .  S
C472        C473   1.397       .  A
C472       Br477   1.924       .  S
C473        C474   1.406       .  A
C474       Br475   1.925       .  S
C479        C480   1.402       .  A
C479        C484   1.362       .  A
C479       Br486   1.890       .  S
C480        C481   1.438       .  A
C481        C482   1.387       .  A
C481       Br488   1.939       .  S
C482        C483   1.384       .  A
C482       Br487   1.930       .  S
C483        C484   1.394       .  A
C484       Br485   1.940       .  S
C489        C490   1.389       .  A
C489        C494   1.365       .  A
C489       Br496   1.916       .  S
C490        C491   1.383       .  A
C491        C492   1.384       .  A
C491       Br498   1.932       .  S
C492        C493   1.427       .  A
C492      Br1025   1.915   1_554  S
C493        C494   1.382       .  A
C494       Br495   1.894       .  S
Br497      C1020   1.915       .  S
C499        C500   1.417       .  A
C499        C504   1.403       .  A
C499      Br1034   1.913   1_554  S
C500        C501   1.384       .  A
C501        C502   1.346       .  A
C501       Br508   1.880       .  S
C502        C503   1.373       .  A
C502       Br507   1.913       .  S
C503        C504   1.401       .  A
C504       Br505   1.925   1_455  S
Br506      C1027   1.913       .  S
C509        C510   1.409       .  A
C509        C514   1.377       .  A
C509       Br516   1.928       .  S
C510        C511   1.390       .  A
C511        C512   1.384       .  A
C511       Br518   1.926       .  S
C512        C513   1.420       .  A
C512       Br517   1.928       .  S
C513        C514   1.379       .  A
C514       Br515   1.911       .  S
C519        C520   1.410       .  A
C519        C524   1.399       .  A
C519       Br526   1.898       .  S
C520        C521   1.388       .  A
C521        C522   1.381       .  A
C521       Br528   1.918       .  S
C522        C523   1.398       .  A
C522       Br527   1.922       .  S
C523        C524   1.402       .  A
C524       Br525   1.932   1_565  S
C529        C530   1.489       .  S
C529        C535   1.544       .  S
C529        C533   1.516       .  S
C529       C1021   1.486       .  S
C530        H537   1.088       .  S
C531        C532   1.533       .  S
C531       C1041   1.435       .  S
C532        C534   1.540       .  S
C532        H538   1.111       .  S
C534       C1048   1.458       .  S
C535        H540   1.069       .  S
C535        C536   1.369       .  D
C536       C1028   1.444       .  S
C541        C542   1.560       .  S
C541        C547   1.503       .  S
C541        C545   1.510       .  S
C541       C1008   1.488       .  S
C542        H549   1.074       .  S
C542        C543   1.370       .  D
C543        C544   1.499       .  S
C543        C998   1.460       .  S
C544        C548   1.535       .  S
C544        C546   1.545       .  S
C544        H550   1.096       .  S
C545        H551   1.085       .  S
C545        C546   1.329       .  D
C546        C991   1.447       .  S
C547        H552   1.089       .  S
C547        C548   1.350       .  D
C548        C981   1.451       .  S
C553        C554   1.522       .  S
C553        C559   1.571   1_554  S
C553        C557   1.488       .  S
C553        C968   1.513   1_554  S
C555        C556   1.574       .  S
C555        C948   1.505       .  S
C556        C558   1.544       .  S
C556        H562   1.087       .  S
C557        H563   1.076       .  S
C558        C941   1.491       .  S
C559        H564   1.062       .  S
C559        C560   1.391       .  D
C560        C961   1.514       .  S
C565        C566   1.537       .  S
C565        C571   1.510       .  S
C565        C569   1.501       .  S
C565        C928   1.484       .  S
C566        H573   1.056       .  S
C566        C567   1.372       .  D
C567        C568   1.494       .  S
C567        C918   1.467       .  S
C568        C572   1.525       .  S
C568        C570   1.525       .  S
C568        H574   1.088       .  S
C569        H575   1.088       .  S
C569        C570   1.346       .  D
C570        C908   1.446       .  S
C571        H576   1.087       .  S
C571        C572   1.350       .  D
C572        C898   1.419       .  S
N577        C581   1.373       .  A
N577        C578   1.355       .  A
N577       C1031   1.395   1_655  S
C578        C579   1.386       .  A
C578        C793   1.527       .  S
C579        C580   1.398       .  A
C579        H582   1.082       .  S
C580        C581   1.388       .  A
C580        H583   1.082       .  S
C581        C650   1.550       .  S
N584        C588   1.354       .  A
N584        C585   1.362       .  A
N584        C988   1.395   1_655  S
C585        C586   1.388       .  A
C585        C676   1.531       .  S
C586        C587   1.397       .  A
C586        H589   1.082       .  S
C587        C588   1.386       .  A
C587        H590   1.082       .  S
C588        C819   1.517       .  S
N591        C595   1.387       .  A
N591        C592   1.385       .  A
N591        C951   1.448       .  S
C592        C593   1.382       .  A
C592        C858   1.529       .  S
C593        C594   1.378       .  A
C593        H596   1.083       .  S
C594        C595   1.387       .  A
C594        H597   1.082       .  S
C595        C786   1.544       .  S
N598        C602   1.355       .  A
N598        C599   1.352       .  A
N598        C911   1.404       .  S
C599        C600   1.387       .  A
C599        C812   1.521       .  S
C600        C601   1.402       .  A
C600        H603   1.081       .  S
C601        C602   1.386       .  A
C601        H604   1.082       .  S
C602        C884   1.516       .  S
N605        C609   1.356       .  A
N605        C606   1.367       .  A
N605       C1018   1.386       .  S
C606        C607   1.389       .  A
C606        C848   1.553       .  S
C607        C608   1.403       .  A
C607        H610   1.082       .  S
C608        C609   1.388       .  A
C608        H611   1.082       .  S
C609        C727   1.534       .  S
N612        C616   1.357       .  A
N612        C613   1.362       .  A
N612        C978   1.394       .  S
C613        C614   1.387       .  A
C613        C874   1.536       .  S
C614        C615   1.399       .  A
C614        H617   1.082       .  S
C615        C616   1.388       .  A
C615        H618   1.082       .  S
C616        C753   1.525       .  S
N619        C623   1.362       .  A
N619        C620   1.361       .  A
N619        C938   1.413       .  S
C620        C621   1.385   1_545  A
C620        C720   1.520       .  S
C621        C622   1.396       .  A
C621        H624   1.082       .  S
C622        C623   1.388   1_565  A
C622        H625   1.082       .  S
C623        C660   1.523       .  S
N626        C630   1.368   1_545  A
N626        C627   1.364   1_545  A
N626        C901   1.393       .  S
C627        C628   1.388       .  A
C627        C746   1.541   1_565  S
C628        C629   1.401       .  A
C628        H631   1.082       .  S
C629        C630   1.391       .  A
C629        H632   1.082       .  S
C630        C686   1.551   1_565  S
N633        C637   1.355       .  A
N633        C634   1.366       .  A
N633        C931   1.398   1_455  S
C634        C635   1.387       .  A
C634        C782   1.534       .  S
C635        C636   1.396       .  A
C635        H638   1.082       .  S
C636        C637   1.384       .  A
C636        H639   1.082       .  S
C637        C661   1.520       .  S
N640        C644   1.379   1_655  A
N640        C641   1.373   1_655  A
N640        C971   1.427       .  S
C641        C642   1.384       .  A
C641        C687   1.524   1_455  S
C642        C643   1.386       .  A
C642        H645   1.081       .  S
C643        C644   1.381       .  A
C643        H646   1.082       .  S
C644        C808   1.538   1_455  S
O647       Ni653   1.968       .  S
O647        C668   1.276   1_545  A
O648       Ni671   1.988       .  S
O648        C657   1.294   1_545  A
O649       Ni653   1.919   1_455  S
O649       Ni671   1.951   1_455  S
O649       Ni665   1.915   1_445  S
O649        H672   0.965       .  S
C650        O667   1.273       .  A
C650        O659   1.272   1_655  A
O651       Ni670   1.950       .  S
O651        C657   1.276   1_455  A
O652       Ni670   1.970       .  S
O652        C654   1.287       .  A
Ni653       O656   1.940       .  S
Ni653       O658   1.959       .  S
C654        C703   1.547       .  S
C654        O664   1.290       .  A
O655       Ni671   1.952   1_455  S
O655        C661   1.280       .  A
O656        C661   1.278   1_655  A
C657        C694   1.538       .  S
O658        C660   1.285       .  A
O659       Ni670   1.915       .  S
C660        O666   1.283       .  A
H662        O663   0.972       .  S
O663       Ni671   1.912   1_565  S
O663       Ni665   1.958       .  S
O663       Ni670   1.924   1_655  S
O664       Ni665   1.982   1_455  S
Ni665       O669   1.974   1_655  S
Ni665       O667   1.977       .  S
O666       Ni671   1.965       .  S
C668        O669   1.287   1_655  A
O673       Ni679   1.950       .  S
O673        C694   1.275   1_545  A
O674       Ni697   1.988       .  S
O674        C683   1.293   1_545  A
O675       Ni679   1.917   1_455  S
O675       Ni697   1.957   1_455  S
O675       Ni691   1.908   1_445  S
O675        H698   0.967       .  S
C676        O693   1.273       .  A
C676        O685   1.269   1_655  A
O677       Ni696   1.948       .  S
O677        C683   1.276   1_455  A
O678       Ni696   1.941       .  S
O678        C680   1.280       .  A
Ni679       O682   1.916       .  S
Ni679       O684   1.980       .  S
C680        C707   1.532       .  S
C680        O690   1.288       .  A
O681       Ni697   1.976   1_455  S
O681        C687   1.281   1_455  A
O682        C687   1.272       .  A
O684        C686   1.289       .  A
O685       Ni696   1.903       .  S
C686        O692   1.288       .  A
H688        O689   0.966       .  S
O689       Ni697   1.916   1_565  S
O689       Ni691   1.960       .  S
O689       Ni696   1.915   1_655  S
O690       Ni691   1.977   1_455  S
Ni691       O695   1.983       .  S
Ni691       O693   1.963       .  S
O692       Ni697   1.976       .  S
C694        O695   1.291       .  A
N699        C703   1.363       .  A
N699        C700   1.354       .  A
N699       C1011   1.392       .  S
C700        C701   1.388   1_565  A
C700        C726   1.537       .  S
C701        C702   1.405   1_545  A
C701        H704   1.082       .  S
C702        C703   1.390       .  A
C702        H705   1.082   1_565  S
N706        C710   1.367       .  A
N706        C707   1.367       .  A
N706       C1051   1.417       .  S
C707        C708   1.388       .  A
C708        C709   1.397       .  A
C708        H711   1.082   1_565  S
C709        C710   1.386       .  A
C709        H712   1.082   1_565  S
C710        C752   1.533       .  S
O713       Ni719   1.953       .  S
O713        C734   1.276   1_565  A
O714       Ni737   1.982       .  S
O714        C723   1.291   1_565  A
O715       Ni719   1.925       .  S
O715       Ni737   1.954       .  S
O715       Ni731   1.903   1_565  S
O715        H738   0.967       .  S
C716        C769   1.514       .  S
C716        O733   1.272       .  A
C716        O725   1.271       .  A
O717       Ni736   1.953       .  S
O717        C723   1.278       .  A
O718       Ni736   1.939       .  S
O718        C720   1.282       .  A
Ni719       O722   1.919       .  S
Ni719       O724   1.962       .  S
C720        O730   1.290       .  A
O721       Ni737   1.973       .  S
O721        C727   1.281       .  A
O722        C727   1.272       .  A
O724        C726   1.287       .  A
O725       Ni736   1.919       .  S
C726        O732   1.283       .  A
H728        O729   0.965       .  S
O729       Ni737   1.923   1_545  S
O729       Ni731   1.959       .  S
O729       Ni736   1.918       .  S
O730       Ni731   1.980       .  S
Ni731       O735   1.984       .  S
Ni731       O733   1.946       .  S
O732       Ni737   1.963       .  S
C734        C749   1.538       .  S
C734        O735   1.292       .  A
O739       Ni745   1.965       .  S
O739        C760   1.278   1_565  A
O740       Ni763   1.986       .  S
O740        C749   1.293   1_565  A
O741       Ni745   1.897       .  S
O741       Ni763   1.955       .  S
O741       Ni757   1.895   1_565  S
O741        H764   0.966       .  S
C742        C773   1.509       .  S
C742        O759   1.268       .  A
C742        O751   1.275       .  A
O743       Ni762   1.951       .  S
O743        C749   1.274       .  A
O744       Ni762   1.946       .  S
O744        C746   1.283       .  A
Ni745       O748   1.935       .  S
Ni745       O750   1.960       .  S
C746        O756   1.285       .  A
O747       Ni763   1.964       .  S
O747        C753   1.279       .  A
O748        C753   1.271       .  A
O750        C752   1.284       .  A
O751       Ni762   1.940       .  S
C752        O758   1.286       .  A
H754        O755   0.966       .  S
O755       Ni763   1.921   1_545  S
O755       Ni757   1.956       .  S
O755       Ni762   1.920       .  S
O756       Ni757   1.970       .  S
Ni757       O761   1.962       .  S
Ni757       O759   1.932       .  S
O758       Ni763   1.970       .  S
C760        O761   1.283       .  A
N765        C769   1.357       .  A
N765        C766   1.367       .  A
N765        C921   1.403       .  S
C766        C767   1.386       .  A
C766        C859   1.529       .  S
C767        C768   1.392       .  A
C767        H770   1.082       .  S
C768        C769   1.385       .  A
C768        H771   1.082       .  S
N772        C776   1.350       .  A
N772        C773   1.348       .  A
N772        C958   1.401       .  S
C773        C774   1.386       .  A
C774        C775   1.400       .  A
C774        H777   1.082       .  S
C775        C776   1.387       .  A
C775        H778   1.082       .  S
C776        C885   1.507       .  S
O779       Ni785   1.943       .  S
O779        C800   1.273   1_455  A
O780       Ni803   1.980   1_455  S
O780        C789   1.288   1_455  A
O781       Ni785   1.922   1_655  S
O781       Ni803   1.956       .  S
O781       Ni797   1.920       .  S
O781        H804   0.966       .  S
C782        O799   1.278       .  A
C782        O791   1.273   1_455  A
O783       Ni802   1.957       .  S
O783        C789   1.277       .  A
O784       Ni802   1.954       .  S
O784        C786   1.280       .  A
Ni785       O788   1.934       .  S
Ni785       O790   1.957       .  S
C786        O796   1.290       .  A
O787       Ni803   1.954       .  S
O787        C793   1.275       .  A
O788        C793   1.273   1_455  A
O790        C792   1.283       .  A
O791       Ni802   1.922       .  S
C792        C835   1.538       .  S
C792        O798   1.287       .  A
H794        O795   0.966       .  S
O795       Ni803   1.906   1_455  S
O795       Ni797   1.951   1_455  S
O795       Ni802   1.915   1_455  S
O796       Ni797   1.975       .  S
Ni797       O801   1.991       .  S
Ni797       O799   1.969   1_655  S
O798       Ni803   1.974   1_455  S
C800        C815   1.538       .  S
C800        O801   1.293       .  A
O805       Ni811   1.959       .  S
O805        C826   1.277       .  A
O806       Ni829   1.982       .  S
O806        C815   1.293       .  A
O807       Ni811   1.905   1_655  S
O807       Ni829   1.958       .  S
O807       Ni823   1.912       .  S
O807        H830   0.965       .  S
C808        O825   1.272   1_655  A
C808        O817   1.262       .  A
O809       Ni828   1.957       .  S
O809        C815   1.277       .  A
O810       Ni828   1.954       .  S
O810        C812   1.288       .  A
Ni811       O814   1.928       .  S
Ni811       O816   1.941       .  S
C812        O822   1.289       .  A
O813       Ni829   1.948       .  S
O813        C819   1.275       .  A
O814        C819   1.275   1_455  A
O816        C818   1.283       .  A
O817       Ni828   1.909       .  S
C818        C839   1.519       .  S
C818        O824   1.283       .  A
H820        O821   0.966       .  S
O821       Ni829   1.908   1_455  S
O821       Ni823   1.957   1_455  S
O821       Ni828   1.914   1_455  S
O822       Ni823   1.963       .  S
Ni823       O827   1.971       .  S
Ni823       O825   1.974   1_655  S
O824       Ni829   1.959   1_455  S
C826        O827   1.289   1_455  A
N831        C835   1.370       .  A
N831        C832   1.367       .  A
N831       C1001   1.413       .  S
C832        C833   1.389       .  A
C832        C852   1.537       .  S
C833        C834   1.396       .  A
C833        H836   1.082       .  S
C834        C835   1.385       .  A
C834        H837   1.082       .  S
N838        C842   1.363       .  A
N838        C839   1.351       .  A
N838       C1038   1.403       .  S
C839        C840   1.385       .  A
C840        C841   1.402       .  A
C840        H843   1.082       .  S
C841        C842   1.391       .  A
C841        H844   1.082       .  S
C842        C878   1.541       .  S
O845       Ni851   1.931       .  S
O845        C866   1.270       .  A
O846       Ni869   1.978       .  S
O846        C855   1.290       .  A
O847       Ni851   1.903       .  S
O847       Ni869   1.957       .  S
O847       Ni863   1.931       .  S
O847        H870   0.966       .  S
C848        O865   1.286       .  A
C848        O857   1.276       .  A
O849       Ni868   1.949       .  S
O849        C855   1.276       .  A
O850       Ni868   1.962       .  S
O850        C852   1.283       .  A
Ni851       O854   1.930       .  S
Ni851       O856   1.947       .  S
C852        O862   1.285       .  A
O853       Ni869   1.965       .  S
O853        C859   1.273       .  A
O854        C859   1.271       .  A
C855        C892   1.531       .  S
O856        C858   1.273       .  A
O857       Ni868   1.930       .  S
C858        O864   1.291       .  A
H860        O861   0.967       .  S
O861       Ni869   1.916       .  S
O861       Ni863   1.954       .  S
O861       Ni868   1.925       .  S
O862       Ni863   1.953       .  S
Ni863       O867   2.002       .  S
Ni863       O865   1.988       .  S
O864       Ni869   1.985       .  S
C866        O867   1.297       .  A
O871       Ni877   1.955       .  S
O871        C892   1.276       .  A
O872       Ni895   1.978       .  S
O872        C881   1.294       .  A
O873       Ni877   1.919       .  S
O873       Ni895   1.954       .  S
O873       Ni889   1.918       .  S
O873        H896   0.966       .  S
C874        O891   1.275       .  A
C874        O883   1.276       .  A
O875       Ni894   1.961       .  S
O875        C881   1.278       .  A
O876       Ni894   1.971       .  S
O876        C878   1.287       .  A
Ni877       O880   1.916       .  S
Ni877       O882   1.922       .  S
C878        O888   1.287       .  A
O879       Ni895   1.955       .  S
O879        C885   1.274       .  A
O880        C885   1.266       .  A
O882        C884   1.278       .  A
O883       Ni894   1.926       .  S
C884        O890   1.290       .  A
H886        O887   0.966       .  S
O887       Ni895   1.903       .  S
O887       Ni889   1.951       .  S
O887       Ni894   1.920       .  S
O888       Ni889   1.968       .  S
Ni889       O893   1.974       .  S
Ni889       O891   1.961       .  S
O890       Ni895   1.986       .  S
C892        O893   1.289       .  A
C897        C898   1.410       .  A
C897        C902   1.400       .  A
C897       Br904   1.914       .  S
C898        C899   1.375       .  A
C899        C900   1.339       .  A
C899       Br906   1.867       .  S
C900        C901   1.388       .  A
C900       Br905   1.914       .  S
C901        C902   1.402       .  A
C902       Br903   1.920   1_545  S
C907        C908   1.396       .  A
C907        C912   1.383       .  A
C907       Br914   1.906       .  S
C908        C909   1.408       .  A
C909        C910   1.386       .  A
C909       Br916   1.904       .  S
C910        C911   1.394       .  A
C910       Br915   1.931       .  S
C911        C912   1.396       .  A
C912       Br913   1.938       .  S
C917        C918   1.435       .  A
C917        C922   1.406       .  A
C917       Br924   1.925       .  S
C918        C919   1.393       .  A
C919        C920   1.351       .  A
C919       Br926   1.906       .  S
C920        C921   1.371       .  A
C920       Br925   1.895       .  S
C921        C922   1.394       .  A
C922       Br923   1.926       .  S
C927        C928   1.423       .  A
C927        C932   1.396       .  A
C927       Br934   1.909       .  S
C928        C929   1.386       .  A
C929        C930   1.360       .  A
C929       Br936   1.908       .  S
C930        C931   1.375       .  A
C930       Br935   1.887       .  S
C931        C932   1.391       .  A
C932       Br933   1.926   1_655  S
C937        C938   1.383       .  A
C937        C942   1.397       .  A
C937       Br944   1.937       .  S
C938        C939   1.394       .  A
C939        C940   1.392       .  A
C939       Br946   1.908       .  S
C940        C941   1.390       .  A
C940       Br945   1.888       .  S
C941        C942   1.436       .  A
C942       Br943   1.902       .  S
C947        C948   1.379       .  A
C947        C952   1.386       .  A
C947       Br954   1.924       .  S
C948        C949   1.406       .  A
C949        C950   1.414       .  A
C949       Br956   1.892       .  S
C950        C951   1.414       .  A
C950       Br955   1.925       .  S
C951        C952   1.419       .  A
C952       Br953   1.868       .  S
C957        C958   1.376       .  A
C957        C962   1.384       .  A
C957       Br964   1.920       .  S
C958        C959   1.380       .  A
C959        C960   1.395       .  A
C959       Br966   1.943       .  S
C960        C961   1.445       .  A
C961        C962   1.409       .  A
C962       Br963   1.866       .  S
C967        C968   1.398       .  A
C967        C972   1.401   1_655  A
C968        C969   1.393       .  A
C969        C970   1.372       .  A
C969       Br976   1.920   1_556  S
C970        C971   1.419       .  A
C970       Br975   1.899       .  S
C971        C972   1.417   1_655  A
C972       Br973   1.929       .  S
C977        C978   1.395       .  A
C977        C982   1.389       .  A
C977       Br984   1.923       .  S
C978        C979   1.395       .  A
C979        C980   1.365       .  A
C979       Br986   1.902       .  S
C980        C981   1.360       .  A
C980       Br985   1.853       .  S
C981        C982   1.409       .  A
C982       Br983   1.905       .  S
C987        C988   1.396       .  A
C987        C992   1.376       .  A
C987       Br994   1.936       .  S
C988        C989   1.395       .  A
C989        C990   1.390       .  A
C989       Br996   1.927   1_455  S
C990        C991   1.410       .  A
C990       Br995   1.919       .  S
C991        C992   1.377       .  A
C992       Br993   1.893       .  S
C997        C998   1.409       .  A
C997       C1002   1.403       .  A
C997      Br1004   1.904       .  S
C998        C999   1.386       .  A
C999       C1000   1.373       .  A
C999      Br1006   1.896       .  S
C1000      C1001   1.397       .  A
C1000     Br1005   1.923       .  S
C1001      C1002   1.406       .  A
C1002     Br1003   1.925       .  S
C1007      C1008   1.402       .  A
C1007      C1012   1.363       .  A
C1007     Br1014   1.888       .  S
C1008      C1009   1.439       .  A
C1009      C1010   1.387       .  A
C1009     Br1016   1.939       .  S
C1010      C1011   1.384       .  A
C1010     Br1015   1.930       .  S
C1011      C1012   1.394       .  A
C1012     Br1013   1.940       .  S
C1017      C1018   1.390       .  A
C1017      C1022   1.365       .  A
C1017     Br1024   1.917       .  S
C1018      C1019   1.383       .  A
C1019      C1020   1.384       .  A
C1019     Br1026   1.931       .  S
C1020      C1021   1.426       .  A
C1021      C1022   1.381       .  A
C1022     Br1023   1.893       .  S
C1027      C1028   1.417       .  A
C1027      C1032   1.402       .  A
C1028      C1029   1.384       .  A
C1029      C1030   1.347       .  A
C1029     Br1036   1.879       .  S
C1030      C1031   1.374       .  A
C1030     Br1035   1.915       .  S
C1031      C1032   1.401       .  A
C1032     Br1033   1.925   1_455  S
C1037      C1038   1.408       .  A
C1037      C1042   1.377       .  A
C1037     Br1044   1.928       .  S
C1038      C1039   1.390       .  A
C1039      C1040   1.385       .  A
C1039     Br1046   1.927       .  S
C1040      C1041   1.421       .  A
C1040     Br1045   1.929   1_556  S
C1041      C1042   1.380       .  A
C1042     Br1043   1.912       .  S
C1047      C1048   1.411       .  A
C1047      C1052   1.399       .  A
C1047     Br1054   1.898   1_556  S
C1048      C1049   1.387       .  A
C1049      C1050   1.380       .  A
C1049     Br1056   1.917       .  S
C1050      C1051   1.398       .  A
C1050     Br1055   1.921       .  S
C1051      C1052   1.402       .  A
C1052     Br1053   1.931   1_565  S
