geometry optimzed in LAMMPS
_audit_creation_date              2020-12-01 
_audit_creation_method            'lammps2cif' 
_symmetry_space_group_name_H-M    'P1' 
_symmetry_Int_Tables_number       1 
_symmetry_cell_setting            triclinic 
loop_ 
_symmetry_equiv_pos_as_xyz 
  x,y,z 
_cell_length_a                    47.95066363 
_cell_length_b                    47.96675471961322 
_cell_length_c                    43.549633514409784 
_cell_angle_alpha                 89.97561575336385 
_cell_angle_beta                  89.86483113882053 
_cell_angle_gamma                 89.80377245923256 
loop_ 
_atom_site_label 
_atom_site_type_symbol 
_atom_site_fract_x 
_atom_site_fract_y 
_atom_site_fract_z 
_atom_site_charge 
O1          O  0.12583335  0.47630754  0.50066613    -0.74400
O2          O  0.20575430  0.47576269  0.99870784    -0.74400
O3          O  0.16654292  0.47599985  0.04361601    -0.74400
O4          O  0.16509210  0.47594030  0.45584700    -0.74500
O5          O  0.16561152  0.02231361  0.45558889    -0.74400
O6          O  0.16614838  0.02249465  0.04354531    -0.74400
O7          O  0.20570107  0.02223009  0.49902378    -0.74400
O8          O  0.12596315  0.02282942  0.00000730    -0.74400
Ni9        Ni  0.16576107  0.47430571  0.99970155     1.25400
Ni10       Ni  0.16584153  0.02411386  0.99954018     1.25400
C11         C  0.11285137  0.99966668  0.00047768     0.87800
C12         C  0.21898042  0.99902423  0.49846973     0.87800
C13         C  0.16654092  0.49922512  0.05813720     0.87800
C14         C  0.16537888  0.49907868  0.44116428     0.88000
O15         O  0.12987696  0.02272124  0.24984816    -0.74400
O16         O  0.20970118  0.02045937  0.24922412    -0.74400
O17         O  0.16955313  0.02136318  0.20558755    -0.74400
O18         O  0.16996309  0.02190767  0.29341588    -0.74500
O19         O  0.16863931  0.47546775  0.29386626    -0.74400
O20         O  0.16896676  0.47484847  0.20587083    -0.74400
O21         O  0.20882312  0.47397872  0.24989777    -0.74400
O22         O  0.12890621  0.47615220  0.24991391    -0.74400
Ni23       Ni  0.16984112  0.02325422  0.24949775     1.25400
Ni24       Ni  0.16880906  0.47344665  0.24989760     1.25400
C25         C  0.11636262  0.49974736  0.25001016     0.87800
C26         C  0.22251615  0.49686599  0.24951771     0.87800
C27         C  0.16917302  0.49800596  0.19117200     0.87800
C28         C  0.16914275  0.49880858  0.30819214     0.88000
O29         O  0.05341233  0.40454315  0.99978161    -0.74400
O30         O  0.05443904  0.32455812  0.50109668    -0.74400
O31         O  0.05399395  0.36396703  0.45656147    -0.74400
O32         O  0.05408575  0.36514099  0.04423740    -0.74500
O33         O  0.00764945  0.36486966  0.04454239    -0.74400
O34         O  0.00756401  0.36345771  0.45657202    -0.74400
O35         O  0.00805509  0.32431642  0.00141079    -0.74400
O36         O  0.00684347  0.40405446  0.49984507    -0.74400
Ni37       Ni  0.05562334  0.36455608  0.50039881     1.25400
Ni38       Ni  0.00585078  0.36414540  0.50057770     1.25400
C39         C  0.02993587  0.41731591  0.49970573     0.87800
C40         C  0.03133079  0.31118337  0.50160206     0.87800
C41         C  0.03083918  0.36353393  0.44200199     0.87800
C42         C  0.03094185  0.36514973  0.05894421     0.88000
O43         O  0.05491042  0.40383938  0.25008249    -0.74400
O44         O  0.05309268  0.32413783  0.25060513    -0.74400
O45         O  0.05384166  0.36389069  0.20639317    -0.74400
O46         O  0.05379379  0.36404218  0.29436124    -0.74500
O47         O  0.00736184  0.36496738  0.29433412    -0.74400
O48         O  0.00741472  0.36503243  0.20663252    -0.74400
O49         O  0.00667058  0.32501778  0.25059452    -0.74400
O50         O  0.00835098  0.40498120  0.25030034    -0.74400
Ni51       Ni  0.05556532  0.36393594  0.25036122     1.25400
Ni52       Ni  0.00579630  0.36505100  0.25047119     1.25400
C53         C  0.03193022  0.41743626  0.24994910     0.87800
C54         C  0.02968418  0.31133471  0.25079383     0.87800
C55         C  0.03057238  0.36459611  0.19195815     0.87800
C56         C  0.03050803  0.36429836  0.30891039     0.88000
O57         O  0.43359589  0.47723649  0.99926675    -0.74400
O58         O  0.35373719  0.47593213  0.49805434    -0.74400
O59         O  0.39438742  0.47643442  0.45471556    -0.74400
O60         O  0.39319338  0.47670289  0.04261377    -0.74500
O61         O  0.39178542  0.02321917  0.04247974    -0.74400
O62         O  0.39351630  0.02282934  0.45452293    -0.74400
O63         O  0.35276826  0.02225493  0.99760645    -0.74400
O64         O  0.43264537  0.02380697  0.49928103    -0.74400
Ni65       Ni  0.39373166  0.47497496  0.49868288     1.25400
Ni66       Ni  0.39264385  0.02468755  0.49847177     1.25400
C67         C  0.44616452  0.50076185  0.49945491     0.87800
C68         C  0.34000800  0.49875590  0.99751395     0.87800
C69         C  0.39425425  0.49960233  0.44004571     0.87800
C70         C  0.39244933  0.49995514  0.05708679     0.88000
O71         O  0.43606936  0.02292296  0.24845760    -0.74400
O72         O  0.35637768  0.02099318  0.24888139    -0.74400
O73         O  0.39630337  0.02156909  0.29252294    -0.74400
O74         O  0.39587741  0.02225508  0.20461689    -0.74500
O75         O  0.39742391  0.47573340  0.20429646    -0.74400
O76         O  0.39728546  0.47509476  0.29228458    -0.74400
O77         O  0.35729451  0.47450803  0.24831608    -0.74400
O78         O  0.43726395  0.47633368  0.24840165    -0.74400
Ni79       Ni  0.39613813  0.02356999  0.24861408     1.25400
Ni80       Ni  0.39736963  0.47374374  0.24828444     1.25400
C81         C  0.44967738  0.49991551  0.24862690     0.87800
C82         C  0.34358106  0.49751002  0.24871148     0.87800
C83         C  0.39679832  0.49824114  0.30696038     0.87800
C84         C  0.39645519  0.49903696  0.18991595     0.88000
O85         O  0.02964797  0.04048091  0.02608500    -0.74400
O86         O  0.02915596  0.46062581  0.02552093    -0.74400
O87         O  0.06929102  0.00007575  0.02604938    -0.74400
O88         O  0.48937532  0.50092150  0.02553315    -0.74500
O89         O  0.48980655  0.00121574  0.47421758    -0.74400
O90         O  0.06964662  0.50039521  0.47475390    -0.74400
O91         O  0.02958263  0.46087694  0.47421739    -0.74400
O92         O  0.03007075  0.04076602  0.47478523    -0.74400
Ni93       Ni  0.02933151  0.50052911  0.02764381     1.25400
Ni94       Ni  0.02976799  0.50083881  0.47265115     1.25400
C95         C  0.03005618  0.05366761  0.00053150     0.87800
C96         C  0.02949811  0.44771504  0.49979273     0.87800
C97         C  0.08247567  0.50000560  0.00045095     0.87800
C98         C  0.47654937  0.50111246  0.99978638     0.88000
O99         O  0.03264787  0.46081534  0.27535985    -0.74400
O100        O  0.03269188  0.04053257  0.27569652    -0.74400
O101        O  0.49276817  0.50069500  0.27491096    -0.74400
O102        O  0.07275790  0.00049216  0.27561210    -0.74500
O103        O  0.07310083  0.50070876  0.22432313    -0.74400
O104        O  0.49334287  0.00090386  0.22361554    -0.74400
O105        O  0.03315538  0.04088493  0.22440188    -0.74400
O106        O  0.03312657  0.46085780  0.22405967    -0.74400
Ni107      Ni  0.03272275  0.50065486  0.27723288     1.25400
Ni108      Ni  0.03322515  0.50087169  0.22224954     1.25400
C109        C  0.03263824  0.44781642  0.24973591     0.87800
C110        C  0.03280410  0.05373961  0.25018723     0.87800
C111        C  0.48004138  0.50060246  0.24908756     0.87800
C112        C  0.08595775  0.50043341  0.25001915     0.88000
O113        O  0.00753469  0.09756031  0.00126161    -0.74400
O114        O  0.00894873  0.17730601  0.50246716    -0.74400
O115        O  0.00776364  0.13800918  0.45787530    -0.74400
O116        O  0.00887968  0.13687437  0.04572405    -0.74500
O117        O  0.05531276  0.13610132  0.04497804    -0.74400
O118        O  0.05419247  0.13706512  0.45718856    -0.74400
O119        O  0.05540095  0.17655566  0.00159694    -0.74400
O120        O  0.05409210  0.09661693  0.50055467    -0.74400
Ni121      Ni  0.00662507  0.13745376  0.50185416     1.25400
Ni122      Ni  0.05641100  0.13656021  0.00104590     1.25400
C123        C  0.03059097  0.08403510  0.50076530     0.87800
C124        C  0.03237558  0.19019361  0.00222755     0.87800
C125        C  0.03083079  0.13768530  0.44296881     0.87800
C126        C  0.03226844  0.13633718  0.05990315     0.88000
O127        O  0.00896061  0.09696641  0.25111238    -0.74400
O128        O  0.00791156  0.17689273  0.25163821    -0.74400
O129        O  0.00850362  0.13703691  0.20754248    -0.74400
O130        O  0.00839492  0.13679447  0.29536854    -0.74500
O131        O  0.05482889  0.13705652  0.29521184    -0.74400
O132        O  0.05493656  0.13753931  0.20736463    -0.74400
O133        O  0.05433125  0.17720702  0.25162200    -0.74400
O134        O  0.05552447  0.09739310  0.25084506    -0.74400
Ni135      Ni  0.00678430  0.13690652  0.25142945     1.25400
Ni136      Ni  0.05655527  0.13732525  0.25127709     1.25400
C137        C  0.03241525  0.08414476  0.25065104     0.87800
C138        C  0.03099382  0.19030058  0.25175897     0.87800
C139        C  0.03170123  0.13714393  0.19290037     0.87800
C140        C  0.03162344  0.13698025  0.30985849     0.88000
C141        C  0.05603645  0.13568132  0.39277086    -0.21200
C142        C  0.03070756  0.13784030  0.40891759    -0.09300
C143        C  0.00569497  0.13989913  0.39213599     0.29600
C144        C  0.00621124  0.13954880  0.36004186    -0.21200
C145        C  0.03155700  0.13724899  0.34391503    -0.09300
C146        C  0.05656071  0.13539566  0.36072105     0.29600
F147        F  0.08162045  0.13311701  0.34636567    -0.19800
H148        H  0.07564111  0.13406502  0.40495151     0.17900
H149        H  0.48663215  0.14117698  0.34781329     0.18000
F150        F  0.48067806  0.14234896  0.40655612    -0.19800
C151        C  0.05710303  0.13790229  0.14269486    -0.21200
C152        C  0.03173491  0.13667891  0.15888007    -0.09300
C153        C  0.00668987  0.13483599  0.14217039     0.29600
C154        C  0.00716189  0.13461780  0.11013198    -0.21200
C155        C  0.03248556  0.13610632  0.09392592    -0.09300
C156        C  0.05757891  0.13758315  0.11061730     0.29600
F157        F  0.08263426  0.13892944  0.09612664    -0.19800
H158        H  0.07673098  0.13920063  0.15485636     0.17900
H159        H  0.48751859  0.13327376  0.09800737     0.18000
F160        F  0.48163369  0.13315547  0.15660857    -0.19800
C161        C  0.40084603  0.47449005  0.39017166    -0.21200
C162        C  0.39505029  0.49940401  0.40599595    -0.09300
C163        C  0.39012199  0.02386115  0.38892331     0.29600
C164        C  0.39089448  0.02323872  0.35687340    -0.21200
C165        C  0.39655421  0.49830773  0.34101088    -0.09300
C166        C  0.40167224  0.47386613  0.35807548     0.29600
F167        F  0.40780227  0.44938593  0.34391654    -0.19800
H168        H  0.40494767  0.45538247  0.40265383     0.17900
H169        H  0.38676279  0.04237059  0.34444859     0.18000
F170        F  0.38413024  0.04839680  0.40302569    -0.19800
C171        C  0.40433800  0.47686960  0.10670496    -0.21200
C172        C  0.39299176  0.49986988  0.09107149    -0.09300
C173        C  0.38293267  0.02274770  0.10821897     0.29600
C174        C  0.38435647  0.02241357  0.14030720    -0.21200
C175        C  0.39564721  0.49927502  0.15592837    -0.09300
C176        C  0.40575509  0.47652932  0.13874769     0.29600
F177        F  0.41765490  0.45421539  0.15279768    -0.19800
H178        H  0.41259277  0.45922277  0.09406153     0.17900
H179        H  0.37618688  0.04007963  0.15298291     0.18000
F180        F  0.37111088  0.04507341  0.09410150    -0.19800
C181        C  0.00519347  0.23586716  0.25081138    -0.21200
C182        C  0.03067345  0.22127500  0.25194850    -0.09300
C183        C  0.05563519  0.23665054  0.25309789     0.29600
C184        C  0.05497673  0.26575161  0.25274232    -0.21200
C185        C  0.02955195  0.28037236  0.25133452    -0.09300
C186        C  0.00454106  0.26504607  0.25053397     0.29600
F187        F  0.47940316  0.27809272  0.24935094    -0.19800
H188        H  0.48562137  0.22469435  0.25000521     0.17900
H189        H  0.07459267  0.27684720  0.25358058     0.18000
F190        F  0.08082459  0.22373019  0.25459504    -0.19800
C191        C  0.05691598  0.26555267  0.49984347    -0.21200
C192        C  0.03157026  0.28022332  0.50233078    -0.09300
C193        C  0.00670738  0.26497230  0.00535698     0.29600
C194        C  0.00727289  0.23585736  0.00543411    -0.21200
C195        C  0.03255816  0.22115770  0.00260799    -0.09300
C196        C  0.05748208  0.23638125  0.49998247     0.29600
F197        F  0.08249031  0.22326618  0.49724099    -0.19800
H198        H  0.07643825  0.27665746  0.49755387     0.17900
H199        H  0.48771726  0.22481406  0.00770972     0.18000
F200        F  0.48167399  0.27800184  0.00834405    -0.19800
C201        C  0.05566136  0.36546653  0.35908794    -0.21200
C202        C  0.03039271  0.36375084  0.34295446    -0.09300
C203        C  0.00532880  0.36141948  0.35973796     0.29600
C204        C  0.00570955  0.36124262  0.39181603    -0.21200
C205        C  0.03096235  0.36325991  0.40795042    -0.09300
C206        C  0.05605171  0.36520802  0.39115239     0.29600
F207        F  0.08105990  0.36709080  0.40553008    -0.19800
H208        H  0.07529016  0.36717316  0.34688821     0.14900
H209        H  0.48608681  0.35951718  0.40402415     0.18000
F210        F  0.48036824  0.35915064  0.34532781    -0.19800
C211        C  0.00577799  0.36706774  0.10920614    -0.21200
C212        C  0.03107483  0.36535701  0.09296998    -0.09300
C213        C  0.05619015  0.36364611  0.10963600     0.29600
C214        C  0.05578913  0.36344808  0.14169710    -0.21200
C215        C  0.03047984  0.36497387  0.15793291    -0.09300
C216        C  0.00537994  0.36692480  0.14126701     0.29600
F217        F  0.48035040  0.36875602  0.15576676    -0.19800
H218        H  0.48612722  0.36852930  0.09709147     0.17900
H219        H  0.07544174  0.36199433  0.15380885     0.18000
F220        F  0.08122713  0.36194465  0.09513410    -0.19800
C221        C  0.29805069  0.47180156  0.24801966    -0.21200
C222        C  0.31260685  0.49719765  0.24900451    -0.09300
C223        C  0.29719371  0.02234362  0.25021790     0.29600
C224        C  0.26810870  0.02186301  0.25040682    -0.21200
C225        C  0.25349335  0.49645099  0.24941904    -0.09300
C226        C  0.26883869  0.47133444  0.24822392     0.29600
F227        F  0.25578176  0.44629197  0.24711404    -0.19800
H228        H  0.30926853  0.45218687  0.24702713     0.17900
H229        H  0.25701463  0.04154853  0.25137654     0.18000
F230        F  0.31005880  0.04748458  0.25129960    -0.19800
C231        C  0.29418724  0.02379879  0.49667089    -0.21200
C232        C  0.30903883  0.49841974  0.99698984    -0.09300
C233        C  0.29393741  0.47325216  0.99709003     0.29600
C234        C  0.26475903  0.47361985  0.99740135    -0.21200
C235        C  0.24993945  0.99903345  0.49756355    -0.09300
C236        C  0.26506463  0.02417229  0.49687704     0.29600
F237        F  0.25187787  0.04925661  0.49649212    -0.19800
H238        H  0.30510908  0.04352292  0.49636500     0.17900
H239        H  0.25377667  0.45392944  0.99768999     0.18000
F240        F  0.30720449  0.44821120  0.99702753    -0.19800
C241        C  0.16151315  0.47464068  0.35833028    -0.21200
C242        C  0.16838223  0.49906407  0.34221485    -0.09300
C243        C  0.17400220  0.02351317  0.35897713     0.29600
C244        C  0.17267633  0.02335158  0.39103663    -0.21200
C245        C  0.16588947  0.49893411  0.40713952    -0.09300
C246        C  0.16023233  0.47448851  0.39038317     0.29600
F247        F  0.15310818  0.45044695  0.40481448    -0.19800
H248        H  0.15684824  0.45556661  0.34610189     0.17900
H249        H  0.17735849  0.04240705  0.40329249     0.18000
F250        F  0.18123075  0.04753497  0.34456701    -0.19800
C251        C  0.16172623  0.02276139  0.14130470    -0.21200
C252        C  0.16867345  0.49807308  0.15713762    -0.09300
C253        C  0.17451475  0.47379518  0.14009432     0.29600
C254        C  0.17369381  0.47437834  0.10801142    -0.21200
C255        C  0.16710961  0.49908450  0.09217621    -0.09300
C256        C  0.16085061  0.02332377  0.10923811     0.29600
F257        F  0.15339035  0.04743058  0.09508445    -0.19800
H258        H  0.15661669  0.04163648  0.15377979     0.17900
H259        H  0.17848898  0.45542213  0.09553867     0.18000
F260        F  0.18147708  0.44955544  0.15427885    -0.19800
O261        O  0.12578755  0.47625191  0.00060162    -0.74400
O262        O  0.20579244  0.47591148  0.49874431    -0.74400
O263        O  0.16660550  0.47611740  0.54366106    -0.74400
O264        O  0.16506408  0.47584940  0.95579436    -0.74500
O265        O  0.16560219  0.02230622  0.95556010    -0.74400
O266        O  0.16614200  0.02247704  0.54357284    -0.74400
O267        O  0.20569314  0.02222679  0.99898878    -0.74400
O268        O  0.12596901  0.02281136  0.50002914    -0.74400
Ni269      Ni  0.16580685  0.47440982  0.49975172     1.25400
Ni270      Ni  0.16584656  0.02410787  0.49956916     1.25400
C271        C  0.11286436  0.99964450  0.50050049     0.87800
C272        C  0.21896760  0.99901846  0.99845143     0.87800
C273        C  0.16653423  0.49934859  0.55816805     0.87800
C274        C  0.16536279  0.49899359  0.94112244     0.88000
O275        O  0.12986787  0.02269247  0.74985264    -0.74400
O276        O  0.20969356  0.02043751  0.74918846    -0.74400
O277        O  0.16952256  0.02134814  0.70557298    -0.74400
O278        O  0.16997410  0.02187683  0.79339864    -0.74500
O279        O  0.16865005  0.47551037  0.79379457    -0.74400
O280        O  0.16901068  0.47498767  0.70580468    -0.74400
O281        O  0.20883920  0.47411972  0.74983810    -0.74400
O282        O  0.12892747  0.47619291  0.74983002    -0.74400
Ni283      Ni  0.16983202  0.02323030  0.74948228     1.25400
Ni284      Ni  0.16883274  0.47353835  0.74982497     1.25400
C285        C  0.11635427  0.49977177  0.74998336     0.87800
C286        C  0.22250917  0.49701961  0.74945750     0.87800
C287        C  0.16916085  0.49816273  0.69114010     0.87800
C288        C  0.16915092  0.49883568  0.80815001     0.88000
O289        O  0.05340822  0.40450818  0.49978402    -0.74400
O290        O  0.05447822  0.32459325  0.00109551    -0.74400
O291        O  0.05401382  0.36400245  0.95655928    -0.74400
O292        O  0.05405843  0.36510138  0.54424001    -0.74500
O293        O  0.00762210  0.36484394  0.54454103    -0.74400
O294        O  0.00758394  0.36347074  0.95657392    -0.74400
O295        O  0.00801575  0.32429501  0.50140409    -0.74400
O296        O  0.00684746  0.40407003  0.99984223    -0.74400
Ni297      Ni  0.05564628  0.36459287  0.00039636     1.25400
Ni298      Ni  0.00587363  0.36416320  0.00057964     1.25400
C299        C  0.02993410  0.41734006  0.99970477     0.87800
C300        C  0.03137369  0.31121197  0.00160482     0.87800
C301        C  0.03085818  0.36355752  0.94200213     0.87800
C302        C  0.03091343  0.36511121  0.55894507     0.88000
O303        O  0.05490139  0.40380322  0.75007091    -0.74400
O304        O  0.05307981  0.32410053  0.75061044    -0.74400
O305        O  0.05382057  0.36384371  0.70639032    -0.74400
O306        O  0.05379372  0.36401427  0.79435775    -0.74500
O307        O  0.00736138  0.36493603  0.79434233    -0.74400
O308        O  0.00739377  0.36499098  0.70663981    -0.74400
O309        O  0.00665772  0.32498221  0.75060686    -0.74400
O310        O  0.00834221  0.40494678  0.75030429    -0.74400
Ni311      Ni  0.05555447  0.36389883  0.75035753     1.25400
Ni312      Ni  0.00578551  0.36501560  0.75047965     1.25400
C313        C  0.03192179  0.41740160  0.74994551     0.87800
C314        C  0.02967079  0.31129823  0.75080240     0.87800
C315        C  0.03054867  0.36454657  0.69196025     0.87800
C316        C  0.03051100  0.36427160  0.80891244     0.88000
O317        O  0.43359094  0.47728321  0.49925841    -0.74400
O318        O  0.35373893  0.47579277  0.99801019    -0.74400
O319        O  0.39441649  0.47638066  0.95469900    -0.74400
O320        O  0.39321209  0.47684113  0.54262854    -0.74500
O321        O  0.39181723  0.02321767  0.54248073    -0.74400
O322        O  0.39351448  0.02283305  0.95452197    -0.74400
O323        O  0.35278472  0.02226087  0.49762395    -0.74400
O324        O  0.43262635  0.02381957  0.99929609    -0.74400
Ni325      Ni  0.39373779  0.47487973  0.99866459     1.25400
Ni326      Ni  0.39262568  0.02469025  0.99847090     1.25400
C327        C  0.44614320  0.50072990  0.99949899     0.87800
C328        C  0.34002638  0.49890646  0.49755059     0.87800
C329        C  0.39427490  0.49956132  0.94005342     0.87800
C330        C  0.39251034  0.50010563  0.55708042     0.88000
O331        O  0.43606415  0.02289777  0.74845134    -0.74400
O332        O  0.35637162  0.02097093  0.74888362    -0.74400
O333        O  0.39630337  0.02155173  0.79252009    -0.74400
O334        O  0.39586810  0.02223028  0.70461753    -0.74500
O335        O  0.39739668  0.47585269  0.70428610    -0.74400
O336        O  0.39725222  0.47515329  0.79227262    -0.74400
O337        O  0.35726536  0.47464174  0.74829622    -0.74400
O338        O  0.43723053  0.47637012  0.74839376    -0.74400
Ni339      Ni  0.39613265  0.02354746  0.74861258     1.25400
Ni340      Ni  0.39733575  0.47383129  0.74827117     1.25400
C341        C  0.44967063  0.49993645  0.74864548     0.87800
C342        C  0.34357307  0.49765571  0.74869169     0.87800
C343        C  0.39678963  0.49829102  0.80696593     0.87800
C344        C  0.39647076  0.49916586  0.68992080     0.88000
O345        O  0.02965670  0.04045130  0.52608146    -0.74400
O346        O  0.02916533  0.46060767  0.52551561    -0.74400
O347        O  0.06929868  0.00004525  0.52606155    -0.74400
O348        O  0.48938675  0.50090760  0.52550250    -0.74500
O349        O  0.48978782  0.00124427  0.97422905    -0.74400
O350        O  0.06961809  0.50040890  0.97474423    -0.74400
O351        O  0.02955371  0.46089962  0.97422220    -0.74400
O352        O  0.03004968  0.04079887  0.97478876    -0.74400
Ni353      Ni  0.02934051  0.50051242  0.52763348     1.25400
Ni354      Ni  0.02973789  0.50085922  0.97266144     1.25400
C355        C  0.03006875  0.05363630  0.50052697     0.87800
C356        C  0.02948301  0.44773653  0.99979610     0.87800
C357        C  0.08249423  0.50000630  0.50046670     0.87800
C358        C  0.47657031  0.50110924  0.49975025     0.88000
O359        O  0.03264809  0.46078324  0.77535651    -0.74400
O360        O  0.03268468  0.04049332  0.77569866    -0.74400
O361        O  0.49276638  0.50066759  0.77492023    -0.74400
O362        O  0.07275099  0.00045278  0.77560635    -0.74500
O363        O  0.07308628  0.50067984  0.72430816    -0.74400
O364        O  0.49333565  0.00087652  0.72360864    -0.74400
O365        O  0.03315033  0.04085331  0.72440406    -0.74400
O366        O  0.03311197  0.46082501  0.72405645    -0.74400
Ni367      Ni  0.03272106  0.50062458  0.77722988     1.25400
Ni368      Ni  0.03321055  0.50083948  0.72224627     1.25400
C369        C  0.03263087  0.44778331  0.74973267     0.87800
C370        C  0.03279727  0.05370404  0.75019168     0.87800
C371        C  0.48003426  0.50058658  0.74910018     0.87800
C372        C  0.08594916  0.50041962  0.75000064     0.88000
O373        O  0.00753238  0.09752093  0.50125406    -0.74400
O374        O  0.00898173  0.17734383  0.00246496    -0.74400
O375        O  0.00777829  0.13804317  0.95787841    -0.74400
O376        O  0.00885909  0.13683030  0.54572194    -0.74500
O377        O  0.05529246  0.13607318  0.54497827    -0.74400
O378        O  0.05420677  0.13708401  0.95718708    -0.74400
O379        O  0.05536815  0.17653172  0.50160247    -0.74400
O380        O  0.05409408  0.09664035  0.00055879    -0.74400
Ni381      Ni  0.00664296  0.13749325  0.00185697     1.25400
Ni382      Ni  0.05639345  0.13653721  0.50104684     1.25400
C383        C  0.03058845  0.08406648  0.00077156     0.87800
C384        C  0.03233873  0.19016294  0.50223179     0.87800
C385        C  0.03084392  0.13770877  0.94296950     0.87800
C386        C  0.03224750  0.13629914  0.55990215     0.88000
O387        O  0.00895091  0.09692898  0.75112327    -0.74400
O388        O  0.00789697  0.17685540  0.75163225    -0.74400
O389        O  0.00848661  0.13699118  0.70754401    -0.74400
O390        O  0.00838784  0.13676575  0.79537166    -0.74500
O391        O  0.05482174  0.13702914  0.79520835    -0.74400
O392        O  0.05491953  0.13749771  0.70736141    -0.74400
O393        O  0.05431666  0.17717162  0.75161164    -0.74400
O394        O  0.05551475  0.09735851  0.75084856    -0.74400
Ni395      Ni  0.00677205  0.13686897  0.75143209     1.25400
Ni396      Ni  0.05654299  0.13729044  0.75127346     1.25400
C397        C  0.03240638  0.08410886  0.75065924     0.87800
C398        C  0.03097874  0.19026413  0.75175009     0.87800
C399        C  0.03168311  0.13709796  0.69289950     0.87800
C400        C  0.03161812  0.13695657  0.80985842     0.88000
C401        C  0.05604350  0.13569469  0.89276775    -0.21200
C402        C  0.03071660  0.13785462  0.90891801    -0.09300
C403        C  0.00570114  0.13990177  0.89213965     0.29600
C404        C  0.00621269  0.13953872  0.86004554    -0.21200
C405        C  0.03155638  0.13723727  0.84391517    -0.09300
C406        C  0.05656300  0.13539617  0.86071784     0.29600
F407        F  0.08162115  0.13311725  0.84635913    -0.19800
H408        H  0.07565022  0.13408727  0.90494573     0.17900
H409        H  0.48663140  0.14115792  0.84781974     0.18000
F410        F  0.48068560  0.14235058  0.90656295    -0.19800
C411        C  0.05708065  0.13789425  0.64269282    -0.21200
C412        C  0.03171532  0.13662992  0.65887912    -0.09300
C413        C  0.00667281  0.13474671  0.64217047     0.29600
C414        C  0.00714399  0.13453190  0.61013161    -0.21200
C415        C  0.03246462  0.13606345  0.59392482    -0.09300
C416        C  0.05755591  0.13757864  0.61061541     0.29600
F417        F  0.08260835  0.13896959  0.59612400    -0.19800
H418        H  0.07670679  0.13922497  0.65485339     0.17900
H419        H  0.48750280  0.13315603  0.59800716     0.18000
F420        F  0.48162049  0.13302171  0.65661027    -0.19800
C421        C  0.40087716  0.47448854  0.89015657    -0.21200
C422        C  0.39508686  0.49939214  0.90600337    -0.09300
C423        C  0.39014187  0.02386066  0.88891910     0.29600
C424        C  0.39090990  0.02323259  0.85686928    -0.21200
C425        C  0.39656514  0.49833744  0.84101653    -0.09300
C426        C  0.40169204  0.47388550  0.85805962     0.29600
F427        F  0.40781903  0.44941509  0.84387855    -0.19800
H428        H  0.40497826  0.45537155  0.90262145     0.17900
H429        H  0.38677092  0.04236114  0.84444119     0.18000
F430        F  0.38414822  0.04839791  0.90301717    -0.19800
C431        C  0.40424353  0.47696104  0.60670909    -0.21200
C432        C  0.39306859  0.50004028  0.59106754    -0.09300
C433        C  0.38298062  0.02275517  0.60821992     0.29600
C434        C  0.38439033  0.02241197  0.64030852    -0.21200
C435        C  0.39569146  0.49942350  0.65592979    -0.09300
C436        C  0.40564418  0.47660867  0.63875081     0.29600
F437        F  0.41736737  0.45420177  0.65280067    -0.19800
H438        H  0.41236902  0.45925027  0.59407379     0.17900
H439        H  0.37624527  0.04008955  0.65298365     0.18000
F440        F  0.37119948  0.04510258  0.59410283    -0.19800
C441        C  0.00517854  0.23583084  0.75079598    -0.21200
C442        C  0.03065798  0.22123837  0.75194102    -0.09300
C443        C  0.05561946  0.23661343  0.75310405     0.29600
C444        C  0.05496147  0.26571445  0.75275475    -0.21200
C445        C  0.02953744  0.28033577  0.75133980    -0.09300
C446        C  0.00452660  0.26500989  0.75052478     0.29600
F447        F  0.47938925  0.27805709  0.74933210    -0.19800
H448        H  0.48560663  0.22465822  0.74997867     0.17900
H449        H  0.07457726  0.27680961  0.75360384     0.18000
F450        F  0.08080815  0.22369258  0.75461028    -0.19800
C451        C  0.05696249  0.26558165  0.99984121    -0.21200
C452        C  0.03161603  0.28025276  0.00233294    -0.09300
C453        C  0.00666019  0.26494094  0.50535372     0.29600
C454        C  0.00722801  0.23582598  0.50543312    -0.21200
C455        C  0.03251369  0.22112768  0.50261143    -0.09300
C456        C  0.05752603  0.23640841  0.99997757     0.29600
F457        F  0.08253310  0.22329227  0.99723182    -0.19800
H458        H  0.07648190  0.27668492  0.99755041     0.17900
H459        H  0.48767049  0.22477927  0.50770758     0.18000
F460        F  0.48162712  0.27797203  0.50833820    -0.19800
C461        C  0.05566464  0.36556869  0.85908522    -0.21200
C462        C  0.03040263  0.36373518  0.84295595    -0.09300
C463        C  0.00535080  0.36130324  0.85974277     0.29600
C464        C  0.00573453  0.36114393  0.89182075    -0.21200
C465        C  0.03097931  0.36327740  0.90795113    -0.09300
C466        C  0.05605837  0.36532847  0.89114990     0.29600
F467        F  0.08105764  0.36733698  0.90552492    -0.19800
H468        H  0.07528383  0.36735908  0.84688172     0.14900
H469        H  0.48612128  0.35933509  0.90403218     0.18000
F470        F  0.48040099  0.35891079  0.84533530    -0.19800
C471        C  0.00574820  0.36701505  0.60920872    -0.21200
C472        C  0.03104467  0.36530398  0.59297128    -0.09300
C473        C  0.05615931  0.36357783  0.60963641     0.29600
C474        C  0.05575932  0.36337772  0.64169717    -0.21200
C475        C  0.03045161  0.36491355  0.65793468    -0.09300
C476        C  0.00535104  0.36686687  0.64127018     0.29600
F477        F  0.48032224  0.36869721  0.65577190    -0.19800
H478        H  0.48609743  0.36848245  0.59709468     0.17900
H479        H  0.07541215  0.36191657  0.65380745     0.18000
F480        F  0.08119518  0.36186492  0.59513383    -0.19800
C481        C  0.29804064  0.47196549  0.74801854    -0.21200
C482        C  0.31259898  0.49736065  0.74895807    -0.09300
C483        C  0.29718758  0.02232000  0.75024546     0.29600
C484        C  0.26810260  0.02184011  0.75042143    -0.21200
C485        C  0.25348606  0.49661926  0.74934972    -0.09300
C486        C  0.26883143  0.47150059  0.74821155     0.29600
F487        F  0.25577737  0.44645445  0.74715586    -0.19800
H488        H  0.30925499  0.45234674  0.74707694     0.17900
H489        H  0.25700838  0.04152439  0.75141970     0.18000
F490        F  0.31005312  0.04745881  0.75137436    -0.19800
C491        C  0.29417469  0.02379060  0.99671572    -0.21200
C492        C  0.30905672  0.49858684  0.49704625    -0.09300
C493        C  0.29395194  0.47342166  0.49711644     0.29600
C494        C  0.26477596  0.47379223  0.49743133    -0.21200
C495        C  0.24992647  0.99902513  0.99754224    -0.09300
C496        C  0.26505281  0.02416482  0.99692805     0.29600
F497        F  0.25186823  0.04925140  0.99662865    -0.19800
H498        H  0.30509638  0.04351544  0.99647124     0.17900
H499        H  0.25379449  0.45410101  0.49769167     0.18000
F500        F  0.30721332  0.44837756  0.49701348    -0.19800
C501        C  0.16155018  0.47461045  0.85826196    -0.21200
C502        C  0.16840019  0.49905421  0.84217304    -0.09300
C503        C  0.17402247  0.02348368  0.85895354     0.29600
C504        C  0.17268997  0.02332778  0.89101234    -0.21200
C505        C  0.16589259  0.49886789  0.90709723    -0.09300
C506        C  0.16026425  0.47442980  0.89031529     0.29600
F507        F  0.15316327  0.45036885  0.90472115    -0.19800
H508        H  0.15690213  0.45554332  0.84601252     0.17900
H509        H  0.17736253  0.04238749  0.90326474     0.18000
F510        F  0.18124774  0.04750502  0.84454035    -0.19800
C511        C  0.16122835  0.02261142  0.64131254    -0.21200
C512        C  0.16866320  0.49824449  0.65712416    -0.09300
C513        C  0.17553791  0.47424000  0.64008096     0.29600
C514        C  0.17470216  0.47479692  0.60800062    -0.21200
C515        C  0.16708750  0.49921504  0.59218954    -0.09300
C516        C  0.16035069  0.02316217  0.60924596     0.29600
F517        F  0.15237563  0.04710234  0.59508702    -0.19800
H518        H  0.15572608  0.04137100  0.65380063     0.17900
H519        H  0.18032563  0.45607757  0.59550479     0.18000
F520        F  0.18358349  0.45033991  0.65427467    -0.19800
O521        O  0.12581216  0.97625713  0.50065315    -0.74400
O522        O  0.20575695  0.97581784  0.99872620    -0.74400
O523        O  0.16655270  0.97605597  0.04363671    -0.74400
O524        O  0.16507042  0.97588092  0.45582993    -0.74500
O525        O  0.16562180  0.52237322  0.45558766    -0.74400
O526        O  0.16617842  0.52243650  0.04354074    -0.74400
O527        O  0.20570201  0.52232080  0.49903726    -0.74400
O528        O  0.12597774  0.52280585  0.00001715    -0.74400
Ni529      Ni  0.16576602  0.97434579  0.99972441     1.25400
Ni530      Ni  0.16585678  0.52407302  0.99953750     1.25400
C531        C  0.11285609  0.49964865  0.00047049     0.87800
C532        C  0.21898975  0.49911916  0.49848751     0.87800
C533        C  0.16652782  0.99928643  0.05814727     0.87800
C534        C  0.16536224  0.99902427  0.44115596     0.88000
O535        O  0.12988975  0.52269346  0.24983867    -0.74400
O536        O  0.20971078  0.52037644  0.24922800    -0.74400
O537        O  0.16957342  0.52128221  0.20558697    -0.74400
O538        O  0.16997212  0.52187825  0.29341107    -0.74500
O539        O  0.16864475  0.97549650  0.29384002    -0.74400
O540        O  0.16899829  0.97492635  0.20584741    -0.74400
O541        O  0.20883889  0.97406094  0.24988311    -0.74400
O542        O  0.12892357  0.97617902  0.24987606    -0.74400
Ni543      Ni  0.16985476  0.52319818  0.24949368     1.25400
Ni544      Ni  0.16882765  0.97350106  0.24987094     1.25400
C545        C  0.11636502  0.99976597  0.24999569     0.87800
C546        C  0.22251939  0.99695550  0.24950698     0.87800
C547        C  0.16918049  0.99809127  0.19116312     0.87800
C548        C  0.16913819  0.99882918  0.30818168     0.88000
O549        O  0.05339120  0.90454276  0.99978040    -0.74400
O550        O  0.05441064  0.82455694  0.50109551    -0.74400
O551        O  0.05397017  0.86396756  0.45656287    -0.74400
O552        O  0.05405846  0.86513935  0.04423600    -0.74500
O553        O  0.00762212  0.86487338  0.04454199    -0.74400
O554        O  0.00754012  0.86345666  0.45656964    -0.74400
O555        O  0.00802127  0.82432068  0.00140692    -0.74400
O556        O  0.00681760  0.90405256  0.49984477    -0.74400
Ni557      Ni  0.05559623  0.86455362  0.50040051     1.25400
Ni558      Ni  0.00582345  0.86414401  0.50057558     1.25400
C559        C  0.02991073  0.91731261  0.49971047     0.87800
C560        C  0.03130220  0.81118291  0.50160084     0.87800
C561        C  0.03081639  0.86353367  0.44200154     0.87800
C562        C  0.03091472  0.86515094  0.05894332     0.88000
O563        O  0.05489540  0.90383573  0.25008591    -0.74400
O564        O  0.05306303  0.82413490  0.25059715    -0.74400
O565        O  0.05381684  0.86389206  0.20639133    -0.74400
O566        O  0.05377407  0.86403367  0.29435969    -0.74500
O567        O  0.00734204  0.86496321  0.29433510    -0.74400
O568        O  0.00739010  0.86504373  0.20663286    -0.74400
O569        O  0.00664099  0.82502137  0.25058602    -0.74400
O570        O  0.00833619  0.90498561  0.25030872    -0.74400
Ni571      Ni  0.05554290  0.86393222  0.25035927     1.25400
Ni572      Ni  0.00577401  0.86505522  0.25047186     1.25400
C573        C  0.03191768  0.91743678  0.24995589     0.87800
C574        C  0.02965272  0.81133505  0.25078208     0.87800
C575        C  0.03054716  0.86460366  0.19195741     0.87800
C576        C  0.03048894  0.86428960  0.30891001     0.88000
O577        O  0.43358530  0.97727026  0.99927020    -0.74400
O578        O  0.35373912  0.97585683  0.49804034    -0.74400
O579        O  0.39439494  0.97640537  0.45470620    -0.74400
O580        O  0.39318788  0.97676970  0.04262119    -0.74500
O581        O  0.39177078  0.52315226  0.04249479    -0.74400
O582        O  0.39352947  0.52285862  0.45450547    -0.74400
O583        O  0.35276673  0.52219668  0.99761069    -0.74400
O584        O  0.43266961  0.52383319  0.49925193    -0.74400
Ni585      Ni  0.39373541  0.97492386  0.49867336     1.25400
Ni586      Ni  0.39266834  0.52473894  0.49845380     1.25400
C587        C  0.44615380  0.00074359  0.49946867     0.87800
C588        C  0.34000393  0.99881697  0.99751935     0.87800
C589        C  0.39425282  0.99958042  0.44004969     0.87800
C590        C  0.39245907  0.00002814  0.05708358     0.88000
O591        O  0.43605273  0.52288139  0.24843314    -0.74400
O592        O  0.35636445  0.52090471  0.24888305    -0.74400
O593        O  0.39629869  0.52152035  0.29250974    -0.74400
O594        O  0.39584907  0.52217413  0.20460704    -0.74500
O595        O  0.39742238  0.97581393  0.20429042    -0.74400
O596        O  0.39727227  0.97514319  0.29227645    -0.74400
O597        O  0.35728784  0.97459618  0.24830146    -0.74400
O598        O  0.43725534  0.97637464  0.24840036    -0.74400
Ni599      Ni  0.39612165  0.52350455  0.24860164     1.25400
Ni600      Ni  0.39736078  0.97380878  0.24827642     1.25400
C601        C  0.44968130  0.99994924  0.24863964     0.87800
C602        C  0.34358432  0.99760391  0.24869860     0.87800
C603        C  0.39679350  0.99828391  0.30696291     0.87800
C604        C  0.39647341  0.99912182  0.18991718     0.88000
O605        O  0.02964785  0.54047438  0.02608890    -0.74400
O606        O  0.02914306  0.96063207  0.02551988    -0.74400
O607        O  0.06929771  0.50007318  0.02604694    -0.74400
O608        O  0.48936931  0.00093549  0.02552534    -0.74500
O609        O  0.48981842  0.50121509  0.47420620    -0.74400
O610        O  0.06963525  0.00037657  0.47475881    -0.74400
O611        O  0.02956097  0.96087213  0.47422446    -0.74400
O612        O  0.03007232  0.54077239  0.47477822    -0.74400
Ni613      Ni  0.02932493  0.00053599  0.02764123     1.25400
Ni614      Ni  0.02975621  0.00083245  0.47265891     1.25400
C615        C  0.03005014  0.55366185  0.00053573     0.87800
C616        C  0.02947554  0.94771052  0.49979950     0.87800
C617        C  0.08247133  0.00001118  0.00045489     0.87800
C618        C  0.47654601  0.00113122  0.99977703     0.88000
O619        O  0.03264838  0.96081841  0.27536334    -0.74400
O620        O  0.03267819  0.54052963  0.27570140    -0.74400
O621        O  0.49277528  0.00070699  0.27491803    -0.74400
O622        O  0.07275144  0.50049187  0.27562054    -0.74500
O623        O  0.07310013  0.00070213  0.22431453    -0.74400
O624        O  0.49334276  0.50089635  0.22360868    -0.74400
O625        O  0.03314858  0.54088600  0.22440697    -0.74400
O626        O  0.03311849  0.96085668  0.22406316    -0.74400
Ni627      Ni  0.03273003  0.00065869  0.27723219     1.25400
Ni628      Ni  0.03322443  0.00087051  0.22224866     1.25400
C629        C  0.03263160  0.94781725  0.24974068     0.87800
C630        C  0.03279129  0.55373887  0.25019333     0.87800
C631        C  0.48004514  0.00061866  0.24909672     0.87800
C632        C  0.08596042  0.00043391  0.25000849     0.88000
O633        O  0.00751918  0.59755105  0.00126487    -0.74400
O634        O  0.00892764  0.67730720  0.50247180    -0.74400
O635        O  0.00774850  0.63801468  0.45787600    -0.74400
O636        O  0.00885409  0.63687049  0.04572284    -0.74500
O637        O  0.05528732  0.63610590  0.04497875    -0.74400
O638        O  0.05417745  0.63707545  0.45718981    -0.74400
O639        O  0.05537012  0.67655596  0.00159196    -0.74400
O640        O  0.05408151  0.59662489  0.50055275    -0.74400
Ni641      Ni  0.00660886  0.63745513  0.50185472     1.25400
Ni642      Ni  0.05638737  0.63656043  0.00104653     1.25400
C643        C  0.03058218  0.58404014  0.50076082     0.87800
C644        C  0.03234283  0.69019084  0.00221948     0.87800
C645        C  0.03081580  0.63769472  0.44296971     0.87800
C646        C  0.03224235  0.63633835  0.05990285     0.88000
O647        O  0.00894086  0.59696290  0.25112161    -0.74400
O648        O  0.00787929  0.67689034  0.25163029    -0.74400
O649        O  0.00847491  0.63702703  0.20754303    -0.74400
O650        O  0.00837199  0.63679921  0.29537023    -0.74500
O651        O  0.05480594  0.63706478  0.29521007    -0.74400
O652        O  0.05490774  0.63753845  0.20736307    -0.74400
O653        O  0.05429892  0.67720995  0.25161420    -0.74400
O654        O  0.05550455  0.59739647  0.25084816    -0.74400
Ni655      Ni  0.00675826  0.63690337  0.25143065     1.25400
Ni656      Ni  0.05652910  0.63732886  0.25127508     1.25400
C657        C  0.03239741  0.58414448  0.25065853     0.87800
C658        C  0.03096004  0.69030087  0.25174801     0.87800
C659        C  0.03167202  0.63713817  0.19289988     0.87800
C660        C  0.03160148  0.63698842  0.30985853     0.88000
C661        C  0.05601830  0.63567154  0.39276999    -0.21200
C662        C  0.03069200  0.63785224  0.40891826    -0.09300
C663        C  0.00568043  0.63993370  0.39213795     0.29600
C664        C  0.00619470  0.63958302  0.36004372    -0.21200
C665        C  0.03153748  0.63726020  0.34391528    -0.09300
C666        C  0.05654056  0.63538505  0.36071987     0.29600
F667        F  0.08159725  0.63308116  0.34636270    -0.19800
H668        H  0.07562196  0.63403679  0.40494973     0.17900
H669        H  0.48661645  0.64122913  0.34781628     0.18000
F670        F  0.48066646  0.64240704  0.40655961    -0.19800
C671        C  0.05707305  0.63791783  0.14269493    -0.21200
C672        C  0.03170567  0.63667428  0.15887957    -0.09300
C673        C  0.00666225  0.63481505  0.14216931     0.29600
C674        C  0.00713508  0.63459989  0.11013072    -0.21200
C675        C  0.03245811  0.63610775  0.09392549    -0.09300
C676        C  0.05754981  0.63760202  0.11061752     0.29600
F677        F  0.08260429  0.63896955  0.09612759    -0.19800
H678        H  0.07669980  0.63923031  0.15485682     0.17900
H679        H  0.48749303  0.63324208  0.09800530     0.18000
F680        F  0.48160713  0.63311484  0.15660710    -0.19800
C681        C  0.40086273  0.97449729  0.39016056    -0.21200
C682        C  0.39505027  0.99939953  0.40599963    -0.09300
C683        C  0.39013955  0.52386064  0.38890538     0.29600
C684        C  0.39091406  0.52322241  0.35685621    -0.21200
C685        C  0.39655008  0.99833532  0.34101355    -0.09300
C686        C  0.40168705  0.97388930  0.35806393     0.29600
F687        F  0.40783572  0.94942064  0.34389038    -0.19800
H688        H  0.40497890  0.95538672  0.40263149     0.17900
H689        H  0.38679655  0.54235154  0.34442068     0.18000
F690        F  0.38416369  0.54840710  0.40299296    -0.19800
C691        C  0.40431251  0.97693431  0.10670730    -0.21200
C692        C  0.39301402  0.99995544  0.09106940    -0.09300
C693        C  0.38285080  0.52263326  0.10822409     0.29600
C694        C  0.38427253  0.52229719  0.14031162    -0.21200
C695        C  0.39567604  0.99936631  0.15592802    -0.09300
C696        C  0.40573366  0.97659692  0.13874936     0.29600
F697        F  0.41758463  0.95425769  0.15280050    -0.19800
H698        H  0.41252451  0.95926535  0.09406797     0.17900
H699        H  0.37606033  0.53994197  0.15299030     0.18000
F700        F  0.37097350  0.54493098  0.09410926    -0.19800
C701        C  0.00515907  0.73586755  0.25075738    -0.21200
C702        C  0.03063771  0.72127531  0.25193124    -0.09300
C703        C  0.05559810  0.73665077  0.25311261     0.29600
C704        C  0.05494032  0.76575146  0.25275680    -0.21200
C705        C  0.02951756  0.78037267  0.25131640    -0.09300
C706        C  0.00450738  0.76504688  0.25047870     0.29600
F707        F  0.47937143  0.77809448  0.24925619    -0.19800
H708        H  0.48558802  0.72469453  0.24992264     0.17900
H709        H  0.07455552  0.77684648  0.25362328     0.18000
F710        F  0.08078576  0.72373064  0.25464538    -0.19800
C711        C  0.05688797  0.76555509  0.49983541    -0.21200
C712        C  0.03154229  0.78022401  0.50233195    -0.09300
C713        C  0.00666939  0.76497009  0.00533680     0.29600
C714        C  0.00723614  0.73585552  0.00541318    -0.21200
C715        C  0.03252124  0.72115611  0.00259526    -0.09300
C716        C  0.05745572  0.73638436  0.49997670     0.29600
F717        F  0.08246374  0.72327077  0.49722430    -0.19800
H718        H  0.07640890  0.77666065  0.49753603     0.17900
H719        H  0.48767757  0.72480989  0.00768327     0.18000
F720        F  0.48163556  0.77800075  0.00831622    -0.19800
C721        C  0.05563826  0.86551729  0.35908854    -0.21200
C722        C  0.03037475  0.86373936  0.34295396    -0.09300
C723        C  0.00531615  0.86134751  0.35973613     0.29600
C724        C  0.00569543  0.86117620  0.39181432    -0.21200
C725        C  0.03094206  0.86325743  0.40794999    -0.09300
C726        C  0.05602744  0.86526385  0.39115332     0.29600
F727        F  0.08102937  0.86721371  0.40553288    -0.19800
H728        H  0.07526287  0.86727270  0.34688930     0.14900
H729        H  0.48607686  0.85940198  0.40402168     0.18000
F730        F  0.48036312  0.85900983  0.34532410    -0.19800
C731        C  0.00575279  0.86709356  0.10920567    -0.21200
C732        C  0.03104801  0.86535988  0.09296909    -0.09300
C733        C  0.05616218  0.86362941  0.10963470     0.29600
C734        C  0.05576159  0.86343419  0.14169576    -0.21200
C735        C  0.03045389  0.86498235  0.15793213    -0.09300
C736        C  0.00535524  0.86695378  0.14126672     0.29600
F737        F  0.48032751  0.86880886  0.15576717    -0.19800
H738        H  0.48610295  0.86857143  0.09709116     0.17900
H739        H  0.07541323  0.86196382  0.15380710     0.18000
F740        F  0.08119738  0.86190461  0.09513232    -0.19800
C741        C  0.29805447  0.97190202  0.24804510    -0.21200
C742        C  0.31261014  0.99729926  0.24898248    -0.09300
C743        C  0.29719054  0.52223971  0.25029154     0.29600
C744        C  0.26810701  0.52175992  0.25047704    -0.21200
C745        C  0.25349676  0.99655068  0.24940190    -0.09300
C746        C  0.26884404  0.97143376  0.24825212     0.29600
F747        F  0.25579053  0.94638756  0.24719520    -0.19800
H748        H  0.30927174  0.95228539  0.24709240     0.17900
H749        H  0.25701526  0.54144511  0.25148712     0.18000
F750        F  0.31005423  0.54737922  0.25142979    -0.19800
C751        C  0.29419994  0.52389470  0.49673865    -0.21200
C752        C  0.30903449  0.99848498  0.99700067    -0.09300
C753        C  0.29393279  0.97331757  0.99704281     0.29600
C754        C  0.26475497  0.97368491  0.99736015    -0.21200
C755        C  0.24994877  0.49913301  0.49758526    -0.09300
C756        C  0.26507620  0.52427150  0.49694936     0.29600
F757        F  0.25189056  0.54935707  0.49662112    -0.19800
H758        H  0.30512533  0.54361727  0.49647325     0.17900
H759        H  0.25377336  0.95399361  0.99760031     0.18000
F760        F  0.30719901  0.94827624  0.99691091    -0.19800
C761        C  0.16151005  0.97462841  0.35830316    -0.21200
C762        C  0.16837172  0.99906395  0.34220496    -0.09300
C763        C  0.17402404  0.52352122  0.35896928     0.29600
C764        C  0.17270045  0.52337882  0.39102932    -0.21200
C765        C  0.16587371  0.99889530  0.40713035    -0.09300
C766        C  0.16022699  0.97445704  0.39035665     0.29600
F767        F  0.15311269  0.95040429  0.40477127    -0.19800
H768        H  0.15685384  0.95555957  0.34606081     0.17900
H769        H  0.17739070  0.54243900  0.40327252     0.18000
F770        F  0.18126087  0.54753178  0.34454131    -0.19800
C771        C  0.16206970  0.52276295  0.14130075    -0.21200
C772        C  0.16868018  0.99816416  0.15713413    -0.09300
C773        C  0.17486433  0.97397117  0.14009148     0.29600
C774        C  0.17403050  0.97454199  0.10800999    -0.21200
C775        C  0.16709675  0.99915443  0.09218095    -0.09300
C776        C  0.16120786  0.52333870  0.10923535     0.29600
F777        F  0.15411818  0.54755923  0.09508810    -0.19800
H778        H  0.15723526  0.54171348  0.15376714     0.17900
H779        H  0.17910104  0.95565921  0.09553132     0.18000
F780        F  0.18219340  0.94984032  0.15427888    -0.19800
O781        O  0.12579233  0.97627551  0.00062803    -0.74400
O782        O  0.20577468  0.97582102  0.49872770    -0.74400
O783        O  0.16658634  0.97603527  0.54364912    -0.74400
O784        O  0.16506452  0.97587365  0.95581729    -0.74500
O785        O  0.16560547  0.52228198  0.95555752    -0.74400
O786        O  0.16612616  0.52256038  0.54357420    -0.74400
O787        O  0.20570553  0.52217145  0.99897211    -0.74400
O788        O  0.12596650  0.52286180  0.50001611    -0.74400
Ni789      Ni  0.16578603  0.97433858  0.49973664     1.25400
Ni790      Ni  0.16584421  0.52417974  0.49956873     1.25400
C791        C  0.11287383  0.49968789  0.50049895     0.87800
C792        C  0.21897239  0.49895936  0.99843218     0.87800
C793        C  0.16653580  0.99926339  0.55816325     0.87800
C794        C  0.16536120  0.99901243  0.94113519     0.88000
O795        O  0.12985185  0.52273604  0.74986252    -0.74400
O796        O  0.20968087  0.52051890  0.74917742    -0.74400
O797        O  0.16949731  0.52143045  0.70557186    -0.74400
O798        O  0.16996754  0.52192188  0.79339850    -0.74500
O799        O  0.16864678  0.97546591  0.79381758    -0.74400
O800        O  0.16900147  0.97490731  0.70582514    -0.74400
O801        O  0.20883602  0.97403879  0.74985848    -0.74400
O802        O  0.12892155  0.97614998  0.74985423    -0.74400
Ni803      Ni  0.16981616  0.52329401  0.74948256     1.25400
Ni804      Ni  0.16882678  0.97347578  0.74984785     1.25400
C805        C  0.11635920  0.99973509  0.74998912     0.87800
C806        C  0.22251389  0.99693431  0.74947501     0.87800
C807        C  0.16916810  0.99807649  0.69114905     0.87800
C808        C  0.16915127  0.99879711  0.80816176     0.88000
O809        O  0.05338256  0.90450450  0.49978967    -0.74400
O810        O  0.05444437  0.82459215  0.00109227    -0.74400
O811        O  0.05398468  0.86400187  0.95655763    -0.74400
O812        O  0.05402822  0.86509590  0.54424106    -0.74500
O813        O  0.00759182  0.86484125  0.54453920    -0.74400
O814        O  0.00755482  0.86347991  0.95657387    -0.74400
O815        O  0.00798716  0.82429424  0.50140149    -0.74400
O816        O  0.00682639  0.90407740  0.99984466    -0.74400
Ni817      Ni  0.05561831  0.86459159  0.00039464     1.25400
Ni818      Ni  0.00584576  0.86416954  0.00057934     1.25400
C819        C  0.02991528  0.91734407  0.99970523     0.87800
C820        C  0.03133846  0.81121305  0.00159905     0.87800
C821        C  0.03082855  0.86356180  0.94200118     0.87800
C822        C  0.03088253  0.86510600  0.55894460     0.88000
O823        O  0.05487984  0.90379807  0.75006213    -0.74400
O824        O  0.05304598  0.82409811  0.75061703    -0.74400
O825        O  0.05379107  0.86383341  0.70638873    -0.74400
O826        O  0.05376396  0.86401690  0.79435651    -0.74500
O827        O  0.00733203  0.86494912  0.79433985    -0.74400
O828        O  0.00736435  0.86498469  0.70663874    -0.74400
O829        O  0.00662398  0.82498431  0.75061658    -0.74400
O830        O  0.00832078  0.90495001  0.75029229    -0.74400
Ni831      Ni  0.05552568  0.86389476  0.75035611     1.25400
Ni832      Ni  0.00575689  0.86501881  0.75047796     1.25400
C833        C  0.03190296  0.91740037  0.74993334     0.87800
C834        C  0.02963601  0.81129815  0.75081497     0.87800
C835        C  0.03051888  0.86453657  0.69195900     0.87800
C836        C  0.03048093  0.86428219  0.80891077     0.88000
O837        O  0.43359372  0.97725749  0.49925469    -0.74400
O838        O  0.35372954  0.97585099  0.99802156    -0.74400
O839        O  0.39440285  0.97640921  0.95470585    -0.74400
O840        O  0.39320983  0.97676813  0.54262111    -0.74500
O841        O  0.39185333  0.52329098  0.54246471    -0.74400
O842        O  0.39352123  0.52280428  0.95453755    -0.74400
O843        O  0.35280604  0.52233635  0.49761933    -0.74400
O844        O  0.43262214  0.52378548  0.99932244    -0.74400
Ni845      Ni  0.39372724  0.97492672  0.99867264     1.25400
Ni846      Ni  0.39262199  0.52464313  0.99848722     1.25400
C847        C  0.44613999  0.00075950  0.99948697     0.87800
C848        C  0.34001689  0.99882466  0.49754336     0.87800
C849        C  0.39426293  0.99958417  0.94004916     0.87800
C850        C  0.39248607  0.00002630  0.55708408     0.88000
O851        O  0.43607302  0.52291911  0.74847584    -0.74400
O852        O  0.35637769  0.52103910  0.74888486    -0.74400
O853        O  0.39630301  0.52157945  0.79253301    -0.74400
O854        O  0.39588829  0.52229405  0.70462998    -0.74500
O855        O  0.39740788  0.97578915  0.70429326    -0.74400
O856        O  0.39727210  0.97512569  0.79228068    -0.74400
O857        O  0.35728061  0.97457380  0.74830982    -0.74400
O858        O  0.43724678  0.97634932  0.74839690    -0.74400
Ni859      Ni  0.39614180  0.52359289  0.74862639     1.25400
Ni860      Ni  0.39735283  0.97378610  0.74827983     1.25400
C861        C  0.44967433  0.99992282  0.74863338     0.87800
C862        C  0.34357775  0.99758171  0.74870223     0.87800
C863        C  0.39679867  0.99826880  0.80696342     0.87800
C864        C  0.39646069  0.99909681  0.68991894     0.88000
O865        O  0.02965500  0.54045640  0.52607454    -0.74400
O866        O  0.02914740  0.96060242  0.52552290    -0.74400
O867        O  0.06930687  0.50006254  0.52605667    -0.74400
O868        O  0.48937802  0.00090951  0.52551385    -0.74500
O869        O  0.48978882  0.50123049  0.97423686    -0.74400
O870        O  0.06961640  0.00041122  0.97474664    -0.74400
O871        O  0.02954612  0.96090471  0.97422136    -0.74400
O872        O  0.03004410  0.54079333  0.97479273    -0.74400
Ni873      Ni  0.02933230  0.00050677  0.52764123     1.25400
Ni874      Ni  0.02973688  0.00086515  0.97265889     1.25400
C875        C  0.03006526  0.55364185  0.50052052     0.87800
C876        C  0.02946997  0.94774173  0.99979559     0.87800
C877        C  0.08248452  0.99998048  0.50047062     0.87800
C878        C  0.47655982  0.00110732  0.49976262     0.88000
O879        O  0.03263910  0.96077881  0.77534726    -0.74400
O880        O  0.03267330  0.54049805  0.77569765    -0.74400
O881        O  0.49276810  0.00066956  0.77491111    -0.74400
O882        O  0.07274899  0.50047006  0.77560576    -0.74500
O883        O  0.07309331  0.00066888  0.72430891    -0.74400
O884        O  0.49332966  0.50086856  0.72361762    -0.74400
O885        O  0.03313395  0.54085302  0.72440284    -0.74400
O886        O  0.03310793  0.96082505  0.72404718    -0.74400
Ni887      Ni  0.03272257  0.00061911  0.77722556     1.25400
Ni888      Ni  0.03321724  0.00083967  0.72224213     1.25400
C889        C  0.03261963  0.94778141  0.74972207     0.87800
C890        C  0.03278074  0.55370599  0.75018899     0.87800
C891        C  0.48003800  0.00058861  0.74908982     0.87800
C892        C  0.08595384  0.00039873  0.75000284     0.88000
O893        O  0.00752158  0.59752255  0.50125041    -0.74400
O894        O  0.00895088  0.67733709  0.00245858    -0.74400
O895        O  0.00775549  0.63802993  0.95787820    -0.74400
O896        O  0.00884144  0.63682891  0.54572255    -0.74500
O897        O  0.05527486  0.63607765  0.54498072    -0.74400
O898        O  0.05418411  0.63707884  0.95718767    -0.74400
O899        O  0.05534723  0.67653782  0.50160774    -0.74400
O900        O  0.05407866  0.59664003  0.00056410    -0.74400
Ni901      Ni  0.00661924  0.63748483  0.00185593     1.25400
Ni902      Ni  0.05637743  0.63654455  0.50104875     1.25400
C903        C  0.03057568  0.58406139  0.00077624     0.87800
C904        C  0.03231638  0.69016621  0.50223745     0.87800
C905        C  0.03082124  0.63769741  0.94296986     0.87800
C906        C  0.03222933  0.63630086  0.55990386     0.88000
O907        O  0.00892966  0.59692793  0.75111748    -0.74400
O908        O  0.00786896  0.67685389  0.75164465    -0.74400
O909        O  0.00846258  0.63699770  0.70754629    -0.74400
O910        O  0.00836337  0.63675587  0.79537383    -0.74500
O911        O  0.05479725  0.63702478  0.79521056    -0.74400
O912        O  0.05489546  0.63750654  0.70736449    -0.74400
O913        O  0.05428860  0.67717385  0.75162241    -0.74400
O914        O  0.05549354  0.59736169  0.75084489    -0.74400
Ni915      Ni  0.00674753  0.63686745  0.75143458     1.25400
Ni916      Ni  0.05651849  0.63729314  0.75127635     1.25400
C917        C  0.03238636  0.58411020  0.75065386     0.87800
C918        C  0.03094961  0.69026443  0.75176532     0.87800
C919        C  0.03165931  0.63710708  0.69290212     0.87800
C920        C  0.03159371  0.63694686  0.80986043     0.88000
C921        C  0.05602139  0.63569518  0.89276838    -0.21200
C922        C  0.03069342  0.63783930  0.90891885    -0.09300
C923        C  0.00567616  0.63986846  0.89214122     0.29600
C924        C  0.00618732  0.63950584  0.86004744    -0.21200
C925        C  0.03153228  0.63722265  0.84391676    -0.09300
C926        C  0.05654046  0.63539724  0.86071865     0.29600
F927        F  0.08159998  0.63313675  0.84635940    -0.19800
H928        H  0.07562937  0.63410153  0.90494600     0.17900
H929        H  0.48660472  0.64111165  0.84782216     0.18000
F930        F  0.48065907  0.64229946  0.90656480    -0.19800
C931        C  0.05705925  0.63789094  0.64269642    -0.21200
C932        C  0.03169250  0.63664029  0.65888154    -0.09300
C933        C  0.00664985  0.63476877  0.64217155     0.29600
C934        C  0.00712257  0.63455032  0.61013264    -0.21200
C935        C  0.03244484  0.63606725  0.59392692    -0.09300
C936        C  0.05753600  0.63757206  0.61061900     0.29600
F937        F  0.08258997  0.63894836  0.59612905    -0.19800
H938        H  0.07668558  0.63921215  0.65485796     0.17900
H939        H  0.48748127  0.63318384  0.59800730     0.18000
F940        F  0.48159590  0.63305933  0.65661004    -0.19800
C941        C  0.40089804  0.97450018  0.89016464    -0.21200
C942        C  0.39507392  0.99940218  0.90599945    -0.09300
C943        C  0.39018498  0.52386313  0.88893420     0.29600
C944        C  0.39094436  0.52324472  0.85688401    -0.21200
C945        C  0.39656787  0.99832729  0.84101375    -0.09300
C946        C  0.40172060  0.97388728  0.85806809     0.29600
F947        F  0.40788167  0.94941992  0.84389823    -0.19800
H948        H  0.40502206  0.95539311  0.90263890     0.17900
H949        H  0.38682903  0.54238329  0.84446521     0.18000
F950        F  0.38423100  0.54840459  0.90304328    -0.19800
C951        C  0.40428683  0.97690764  0.60670853    -0.21200
C952        C  0.39303402  0.99995075  0.59107002    -0.09300
C953        C  0.38309841  0.52288226  0.60821623     0.29600
C954        C  0.38450156  0.52253307  0.64030583    -0.21200
C955        C  0.39566640  0.99934336  0.65592977    -0.09300
C956        C  0.40569142  0.97656007  0.63875089     0.29600
F957        F  0.41749327  0.95419493  0.65280188    -0.19800
H958        H  0.41247347  0.95922663  0.59406998     0.17900
H959        H  0.37641772  0.54023955  0.65297894     0.18000
F960        F  0.37140455  0.54527483  0.59409823    -0.19800
C961        C  0.00514501  0.73582988  0.75085108    -0.21200
C962        C  0.03062655  0.72123858  0.75196342    -0.09300
C963        C  0.05558830  0.73661480  0.75309851     0.29600
C964        C  0.05492852  0.76571548  0.75274837    -0.21200
C965        C  0.02950251  0.78033583  0.75136107    -0.09300
C966        C  0.00449138  0.76500909  0.75058019     0.29600
F967        F  0.47935242  0.77805557  0.74942231    -0.19800
H968        H  0.48557289  0.72465626  0.75005906     0.17900
H969        H  0.07454500  0.77681109  0.75357221     0.18000
F970        F  0.08077940  0.72369554  0.75457416    -0.19800
C971        C  0.05692585  0.76558131  0.99983471    -0.21200
C972        C  0.03158026  0.78025254  0.00232171    -0.09300
C973        C  0.00663387  0.76494125  0.50536759     0.29600
C974        C  0.00720327  0.73582655  0.50544943    -0.21200
C975        C  0.03248898  0.72113005  0.50261751    -0.09300
C976        C  0.05749070  0.73640910  0.99996998     0.29600
F977        F  0.08249840  0.72329273  0.99723014    -0.19800
H978        H  0.07644847  0.77668623  0.99754927     0.17900
H979        H  0.48764746  0.72477865  0.50773348     0.18000
F980        F  0.48160159  0.77797167  0.50836253    -0.19800
C981        C  0.05563983  0.86549480  0.85908336    -0.21200
C982        C  0.03037097  0.86374882  0.84295461    -0.09300
C983        C  0.00531103  0.86140232  0.85974249     0.29600
C984        C  0.00569548  0.86123808  0.89182026    -0.21200
C985        C  0.03094823  0.86328312  0.90795002    -0.09300
C986        C  0.05603388  0.86524954  0.89114790     0.29600
F987        F  0.08104150  0.86716323  0.90552162    -0.19800
H988        H  0.07526537  0.86721556  0.84687974     0.14900
H989        H  0.48607581  0.85949827  0.90403178     0.18000
F990        F  0.48035114  0.85910378  0.84533684    -0.19800
C991        C  0.00571621  0.86699971  0.60920814    -0.21200
C992        C  0.03101304  0.86529574  0.59297061    -0.09300
C993        C  0.05612813  0.86357356  0.60963543     0.29600
C994        C  0.05572851  0.86337151  0.64169592    -0.21200
C995        C  0.03042078  0.86490141  0.65793363    -0.09300
C996        C  0.00531941  0.86684947  0.64126959     0.29600
F997        F  0.48029045  0.86867298  0.65577167    -0.19800
H998        H  0.48606527  0.86846348  0.59709426     0.17900
H999        H  0.07538182  0.86191463  0.65380585     0.18000
F1000       F  0.08116439  0.86186747  0.59513279    -0.19800
C1001       C  0.29804805  0.97188120  0.74799415    -0.21200
C1002       C  0.31260374  0.99727694  0.74897805    -0.09300
C1003       C  0.29718566  0.52240767  0.75017496     0.29600
C1004       C  0.26809947  0.52193082  0.75035026    -0.21200
C1005       C  0.25349080  0.99652963  0.74937201    -0.09300
C1006       C  0.26883767  0.97141356  0.74818771     0.29600
F1007       F  0.25578390  0.94636917  0.74708131    -0.19800
H1008       H  0.30926520  0.95226563  0.74701293     0.17900
H1009       H  0.25700575  0.54161695  0.75130893     0.18000
F1010       F  0.31005523  0.54754630  0.75125238    -0.19800
C1011       C  0.29417900  0.52372444  0.99664149    -0.21200
C1012       C  0.30904749  0.99849410  0.49703244    -0.09300
C1013       C  0.29394634  0.97332653  0.49715092     0.29600
C1014       C  0.26476912  0.97369369  0.49746115    -0.21200
C1015       C  0.24993104  0.49896060  0.99752138    -0.09300
C1016       C  0.26505778  0.52409899  0.99684817     0.29600
F1017       F  0.25187426  0.54918545  0.99648177    -0.19800
H1018       H  0.30510015  0.54344910  0.99634914     0.17900
H1019       H  0.25378881  0.95400225  0.49776260     0.18000
F1020       F  0.30721248  0.94828488  0.49710599    -0.19800
C1021       C  0.16154968  0.97459378  0.85828710    -0.21200
C1022       C  0.16839794  0.99903089  0.84218508    -0.09300
C1023       C  0.17402908  0.52349852  0.85895410     0.29600
C1024       C  0.17269662  0.52332865  0.89101267    -0.21200
C1025       C  0.16588963  0.99887313  0.90710985    -0.09300
C1026       C  0.16026297  0.97442736  0.89034057     0.29600
F1027       F  0.15316295  0.95037233  0.90475905    -0.19800
H1028       H  0.15690398  0.95552069  0.84604786     0.17900
H1029       H  0.17737201  0.54238235  0.90327505     0.18000
F1030       F  0.18125895  0.54752462  0.84455336    -0.19800
C1031       C  0.16102486  0.52264688  0.64131408    -0.21200
C1032       C  0.16866867  0.99815128  0.65712914    -0.09300
C1033       C  0.17534349  0.97408941  0.64008688     0.29600
C1034       C  0.17450952  0.97464990  0.60800532    -0.21200
C1035       C  0.16709275  0.99912659  0.59218863    -0.09300
C1036       C  0.16014537  0.52319351  0.60924678     0.29600
F1037       F  0.15196280  0.54706265  0.59508499    -0.19800
H1038       H  0.15536394  0.54135645  0.65380884     0.17900
H1039       H  0.17997349  0.95588174  0.59551416     0.18000
F1040       F  0.18318131  0.95012082  0.65428044    -0.19800
O1041       O  0.62583337  0.47630753  0.50066614    -0.74400
O1042       O  0.70575432  0.47576269  0.99870780    -0.74400
O1043       O  0.66654294  0.47599984  0.04361598    -0.74400
O1044       O  0.66509214  0.47594031  0.45584702    -0.74500
O1045       O  0.66561154  0.02231362  0.45558889    -0.74400
O1046       O  0.66614836  0.02249467  0.04354532    -0.74400
O1047       O  0.70570109  0.02223007  0.49902380    -0.74400
O1048       O  0.62596312  0.02282941  0.00000732    -0.74400
Ni1049     Ni  0.66576109  0.47430570  0.99970152     1.25400
Ni1050     Ni  0.66584151  0.02411388  0.99954019     1.25400
C1051       C  0.61285135  0.99966666  0.00047769     0.87800
C1052       C  0.71898043  0.99902420  0.49846972     0.87800
C1053       C  0.66654095  0.49922511  0.05813718     0.87800
C1054       C  0.66537888  0.49907868  0.44116430     0.88000
O1055       O  0.62987693  0.02272127  0.24984814    -0.74400
O1056       O  0.70970116  0.02045939  0.24922410    -0.74400
O1057       O  0.66955310  0.02136325  0.20558756    -0.74400
O1058       O  0.66996305  0.02190768  0.29341587    -0.74500
O1059       O  0.66863929  0.47546772  0.29386627    -0.74400
O1060       O  0.66896678  0.47484845  0.20587084    -0.74400
O1061       O  0.70882314  0.47397871  0.24989779    -0.74400
O1062       O  0.62890622  0.47615217  0.24991389    -0.74400
Ni1063     Ni  0.66984110  0.02325424  0.24949775     1.25400
Ni1064     Ni  0.66880908  0.47344662  0.24989761     1.25400
C1065       C  0.61636264  0.49974733  0.25001015     0.87800
C1066       C  0.72251618  0.49686597  0.24951775     0.87800
C1067       C  0.66917308  0.49800594  0.19117202     0.87800
C1068       C  0.66914275  0.49880855  0.30819215     0.88000
O1069       O  0.55341242  0.40454316  0.99978159    -0.74400
O1070       O  0.55443900  0.32455810  0.50109667    -0.74400
O1071       O  0.55399390  0.36396703  0.45656150    -0.74400
O1072       O  0.55408583  0.36514100  0.04423740    -0.74500
O1073       O  0.50764954  0.36486966  0.04454238    -0.74400
O1074       O  0.50756396  0.36345770  0.45657203    -0.74400
O1075       O  0.50805518  0.32431642  0.00141079    -0.74400
O1076       O  0.50684342  0.40405445  0.49984507    -0.74400
Ni1077     Ni  0.55562328  0.36455606  0.50039884     1.25400
Ni1078     Ni  0.50585073  0.36414539  0.50057771     1.25400
C1079       C  0.52993582  0.41731590  0.49970579     0.87800
C1080       C  0.53133075  0.31118336  0.50160204     0.87800
C1081       C  0.53083913  0.36353394  0.44200201     0.87800
C1082       C  0.53094193  0.36514972  0.05894421     0.88000
O1083       O  0.55491047  0.40383937  0.25008250    -0.74400
O1084       O  0.55309275  0.32413782  0.25060511    -0.74400
O1085       O  0.55384173  0.36389069  0.20639317    -0.74400
O1086       O  0.55379382  0.36404217  0.29436126    -0.74500
O1087       O  0.50736188  0.36496734  0.29433411    -0.74400
O1088       O  0.50741480  0.36503240  0.20663252    -0.74400
O1089       O  0.50667066  0.32501776  0.25059450    -0.74400
O1090       O  0.50835103  0.40498118  0.25030034    -0.74400
Ni1091     Ni  0.55556538  0.36393593  0.25036123     1.25400
Ni1092     Ni  0.50579637  0.36505097  0.25047118     1.25400
C1093       C  0.53193027  0.41743625  0.24994910     0.87800
C1094       C  0.52968426  0.31133470  0.25079380     0.87800
C1095       C  0.53057245  0.36459610  0.19195815     0.87800
C1096       C  0.53050806  0.36429833  0.30891040     0.88000
O1097       O  0.93359590  0.47723649  0.99926679    -0.74400
O1098       O  0.85373718  0.47593212  0.49805433    -0.74400
O1099       O  0.89438741  0.47643442  0.45471556    -0.74400
O1100       O  0.89319336  0.47670287  0.04261377    -0.74500
O1101       O  0.89178544  0.02321922  0.04247973    -0.74400
O1102       O  0.89351641  0.02282932  0.45452296    -0.74400
O1103       O  0.85276826  0.02225498  0.99760648    -0.74400
O1104       O  0.93264536  0.02380696  0.49928116    -0.74400
Ni1105     Ni  0.89373166  0.47497496  0.49868288     1.25400
Ni1106     Ni  0.89264386  0.02468750  0.49847180     1.25400
C1107       C  0.94616452  0.50076185  0.49945485     0.87800
C1108       C  0.84000799  0.49875588  0.99751392     0.87800
C1109       C  0.89425424  0.49960234  0.44004571     0.87800
C1110       C  0.89244931  0.49995511  0.05708679     0.88000
O1111       O  0.93606937  0.02292296  0.24845763    -0.74400
O1112       O  0.85637768  0.02099318  0.24888137    -0.74400
O1113       O  0.89630336  0.02156909  0.29252295    -0.74400
O1114       O  0.89587744  0.02225509  0.20461689    -0.74500
O1115       O  0.89742390  0.47573340  0.20429648    -0.74400
O1116       O  0.89728547  0.47509478  0.29228459    -0.74400
O1117       O  0.85729451  0.47450803  0.24831612    -0.74400
O1118       O  0.93726394  0.47633370  0.24840164    -0.74400
Ni1119     Ni  0.89613813  0.02356999  0.24861408     1.25400
Ni1120     Ni  0.89736962  0.47374375  0.24828446     1.25400
C1121       C  0.94967736  0.49991554  0.24862689     0.87800
C1122       C  0.84358106  0.49751002  0.24871154     0.87800
C1123       C  0.89679832  0.49824116  0.30696038     0.87800
C1124       C  0.89645517  0.49903695  0.18991595     0.88000
O1125       O  0.52964800  0.04048089  0.02608500    -0.74400
O1126       O  0.52915600  0.46062581  0.02552090    -0.74400
O1127       O  0.56929100  0.00007570  0.02604938    -0.74400
O1128       O  0.98937531  0.50092151  0.02553318    -0.74500
O1129       O  0.98980653  0.00121576  0.47421766    -0.74400
O1130       O  0.56964661  0.50039518  0.47475393    -0.74400
O1131       O  0.52958258  0.46087693  0.47421747    -0.74400
O1132       O  0.53007074  0.04076603  0.47478522    -0.74400
Ni1133     Ni  0.52933152  0.50052911  0.02764379     1.25400
Ni1134     Ni  0.52976797  0.50083880  0.47265121     1.25400
C1135       C  0.53005619  0.05366760  0.00053151     0.87800
C1136       C  0.52949808  0.44771503  0.49979280     0.87800
C1137       C  0.58247568  0.50000560  0.00045092     0.87800
C1138       C  0.97654937  0.50111248  0.99978640     0.88000
O1139       O  0.53264792  0.46081532  0.27535985    -0.74400
O1140       O  0.53269187  0.04053257  0.27569650    -0.74400
O1141       O  0.99276815  0.50069504  0.27491094    -0.74400
O1142       O  0.57275788  0.00049215  0.27561208    -0.74500
O1143       O  0.57310086  0.50070873  0.22432313    -0.74400
O1144       O  0.99334288  0.00090386  0.22361557    -0.74400
O1145       O  0.53315536  0.04088492  0.22440186    -0.74400
O1146       O  0.53312657  0.46085779  0.22405967    -0.74400
Ni1147     Ni  0.53272277  0.50065484  0.27723290     1.25400
Ni1148     Ni  0.53322517  0.50087168  0.22224955     1.25400
C1149       C  0.53263827  0.44781640  0.24973590     0.87800
C1150       C  0.53280409  0.05373960  0.25018720     0.87800
C1151       C  0.98004137  0.50060248  0.24908755     0.87800
C1152       C  0.58595778  0.50043340  0.25001915     0.88000
O1153       O  0.50753473  0.09756032  0.00126162    -0.74400
O1154       O  0.50894869  0.17730601  0.50246712    -0.74400
O1155       O  0.50776363  0.13800913  0.45787529    -0.74400
O1156       O  0.50887974  0.13687437  0.04572406    -0.74500
O1157       O  0.55531282  0.13610131  0.04497803    -0.74400
O1158       O  0.55419246  0.13706516  0.45718858    -0.74400
O1159       O  0.55540100  0.17655566  0.00159695    -0.74400
O1160       O  0.55409207  0.09661694  0.50055467    -0.74400
Ni1161     Ni  0.50662503  0.13745376  0.50185416     1.25400
Ni1162     Ni  0.55641105  0.13656020  0.00104589     1.25400
C1163       C  0.53059095  0.08403511  0.50076532     0.87800
C1164       C  0.53237563  0.19019361  0.00222759     0.87800
C1165       C  0.53083078  0.13768529  0.44296881     0.87800
C1166       C  0.53226850  0.13633717  0.05990315     0.88000
O1167       O  0.50896062  0.09696641  0.25111237    -0.74400
O1168       O  0.50791161  0.17689273  0.25163824    -0.74400
O1169       O  0.50850368  0.13703692  0.20754249    -0.74400
O1170       O  0.50839495  0.13679446  0.29536855    -0.74500
O1171       O  0.55482892  0.13705649  0.29521185    -0.74400
O1172       O  0.55493661  0.13753930  0.20736464    -0.74400
O1173       O  0.55433130  0.17720701  0.25162204    -0.74400
O1174       O  0.55552448  0.09739309  0.25084506    -0.74400
Ni1175     Ni  0.50678434  0.13690652  0.25142946     1.25400
Ni1176     Ni  0.55655530  0.13732523  0.25127711     1.25400
C1177       C  0.53241526  0.08414475  0.25065103     0.87800
C1178       C  0.53099387  0.19030057  0.25175902     0.87800
C1179       C  0.53170129  0.13714395  0.19290038     0.87800
C1180       C  0.53162347  0.13698023  0.30985850     0.88000
C1181       C  0.55603647  0.13568131  0.39277086    -0.21200
C1182       C  0.53070758  0.13784028  0.40891758    -0.09300
C1183       C  0.50569498  0.13989913  0.39213598     0.29600
C1184       C  0.50621126  0.13954880  0.36004186    -0.21200
C1185       C  0.53155701  0.13724899  0.34391504    -0.09300
C1186       C  0.55656074  0.13539566  0.36072106     0.29600
F1187       F  0.58162048  0.13311700  0.34636567    -0.19800
H1188       H  0.57564113  0.13406501  0.40495152     0.17900
H1189       H  0.98663214  0.14117697  0.34781330     0.18000
F1190       F  0.98067804  0.14234896  0.40655613    -0.19800
C1191       C  0.55710309  0.13790240  0.14269486    -0.21200
C1192       C  0.53173497  0.13667896  0.15888007    -0.09300
C1193       C  0.50668994  0.13483599  0.14217040     0.29600
C1194       C  0.50716196  0.13461779  0.11013198    -0.21200
C1195       C  0.53248563  0.13610633  0.09392592    -0.09300
C1196       C  0.55757897  0.13758320  0.11061729     0.29600
F1197       F  0.58263433  0.13892946  0.09612664    -0.19800
H1198       H  0.57673103  0.13920079  0.15485637     0.17900
H1199       H  0.98751852  0.13327379  0.09800735     0.18000
F1200       F  0.98163362  0.13315548  0.15660857    -0.19800
C1201       C  0.90084599  0.47449006  0.39017165    -0.21200
C1202       C  0.89505026  0.49940403  0.40599595    -0.09300
C1203       C  0.89012215  0.02386115  0.38892333     0.29600
C1204       C  0.89089459  0.02323872  0.35687341    -0.21200
C1205       C  0.89655422  0.49830775  0.34101088    -0.09300
C1206       C  0.90167221  0.47386615  0.35807548     0.29600
F1207       F  0.90780222  0.44938594  0.34391654    -0.19800
H1208       H  0.90494760  0.45538247  0.40265382     0.17900
H1209       H  0.88676293  0.04237060  0.34444861     0.18000
F1210       F  0.88413044  0.04839680  0.40302571    -0.19800
C1211       C  0.90433793  0.47686955  0.10670497    -0.21200
C1212       C  0.89299173  0.49986985  0.09107149    -0.09300
C1213       C  0.88293274  0.02274777  0.10821899     0.29600
C1214       C  0.88435650  0.02241360  0.14030722    -0.21200
C1215       C  0.89564718  0.49927499  0.15592838    -0.09300
C1216       C  0.90575504  0.47652929  0.13874770     0.29600
F1217       F  0.91765486  0.45421537  0.15279769    -0.19800
H1218       H  0.91259268  0.45922273  0.09406154     0.17900
H1219       H  0.87618694  0.04007966  0.15298294     0.18000
F1220       F  0.87111107  0.04507354  0.09410152    -0.19800
C1221       C  0.50519351  0.23586715  0.25081152    -0.21200
C1222       C  0.53067350  0.22127499  0.25194858    -0.09300
C1223       C  0.55563525  0.23665053  0.25309788     0.29600
C1224       C  0.55497679  0.26575159  0.25274224    -0.21200
C1225       C  0.52955202  0.28037235  0.25133448    -0.09300
C1226       C  0.50454112  0.26504606  0.25053404     0.29600
F1227       F  0.97940311  0.27809272  0.24935074    -0.19800
H1228       H  0.98562133  0.22469436  0.25000496     0.17900
H1229       H  0.57459274  0.27684718  0.25358043     0.18000
F1230       F  0.58082464  0.22373018  0.25459504    -0.19800
C1231       C  0.55691593  0.26555266  0.49984330    -0.21200
C1232       C  0.53157022  0.28022331  0.50233072    -0.09300
C1233       C  0.50670745  0.26497231  0.00535700     0.29600
C1234       C  0.50727295  0.23585737  0.00543416    -0.21200
C1235       C  0.53255822  0.22115770  0.00260806    -0.09300
C1236       C  0.55748204  0.23638124  0.49998236     0.29600
F1237       F  0.58249027  0.22326618  0.49724093    -0.19800
H1238       H  0.57643820  0.27665746  0.49755362     0.17900
H1239       H  0.98771721  0.22481404  0.00770969     0.18000
F1240       F  0.98167390  0.27800181  0.00834407    -0.19800
C1241       C  0.55566135  0.36546659  0.35908797    -0.21200
C1242       C  0.53039272  0.36375085  0.34295447    -0.09300
C1243       C  0.50532880  0.36141943  0.35973795     0.29600
C1244       C  0.50570953  0.36124261  0.39181603    -0.21200
C1245       C  0.53096231  0.36325995  0.40795043    -0.09300
C1246       C  0.55605168  0.36520807  0.39115241     0.29600
F1247       F  0.58105986  0.36709085  0.40553012    -0.19800
H1248       H  0.57529016  0.36717323  0.34688824     0.14900
H1249       H  0.98608683  0.35951726  0.40402416     0.18000
F1250       F  0.98036823  0.35915082  0.34532783    -0.19800
C1251       C  0.50577805  0.36706775  0.10920613    -0.21200
C1252       C  0.53107489  0.36535701  0.09296997    -0.09300
C1253       C  0.55619021  0.36364610  0.10963600     0.29600
C1254       C  0.55578919  0.36344807  0.14169708    -0.21200
C1255       C  0.53047991  0.36497387  0.15793290    -0.09300
C1256       C  0.50538000  0.36692486  0.14126700     0.29600
F1257       F  0.98035033  0.36875586  0.15576677    -0.19800
H1258       H  0.98612716  0.36852927  0.09709147     0.17900
H1259       H  0.57544181  0.36199431  0.15380884     0.18000
F1260       F  0.58122719  0.36194465  0.09513409    -0.19800
C1261       C  0.79805071  0.47180155  0.24801976    -0.21200
C1262       C  0.81260686  0.49719765  0.24900464    -0.09300
C1263       C  0.79719370  0.02234363  0.25021785     0.29600
C1264       C  0.76810869  0.02186301  0.25040671    -0.21200
C1265       C  0.75349337  0.49645098  0.24941913    -0.09300
C1266       C  0.76883871  0.47133443  0.24822398     0.29600
F1267       F  0.75578180  0.44629195  0.24711403    -0.19800
H1268       H  0.80926854  0.45218687  0.24702722     0.17900
H1269       H  0.75701462  0.04154854  0.25137638     0.18000
F1270       F  0.81005878  0.04748457  0.25129959    -0.19800
C1271       C  0.79418726  0.02379875  0.49667087    -0.21200
C1272       C  0.80903882  0.49841972  0.99698977    -0.09300
C1273       C  0.79393740  0.47325214  0.99709003     0.29600
C1274       C  0.76475902  0.47361984  0.99740136    -0.21200
C1275       C  0.74993945  0.99903343  0.49756353    -0.09300
C1276       C  0.76506465  0.02417226  0.49687701     0.29600
F1277       F  0.75187790  0.04925659  0.49649212    -0.19800
H1278       H  0.80510910  0.04352288  0.49636499     0.17900
H1279       H  0.75377666  0.45392944  0.99769006     0.18000
F1280       F  0.80720446  0.44821117  0.99702755    -0.19800
C1281       C  0.66151314  0.47464066  0.35833030    -0.21200
C1282       C  0.66838221  0.49906405  0.34221487    -0.09300
C1283       C  0.67400216  0.02351319  0.35897712     0.29600
C1284       C  0.67267630  0.02335160  0.39103662    -0.21200
C1285       C  0.66588946  0.49893411  0.40713954    -0.09300
C1286       C  0.66023235  0.47448849  0.39038320     0.29600
F1287       F  0.65310830  0.45044692  0.40481453    -0.19800
H1288       H  0.65684826  0.45556658  0.34610192     0.17900
H1289       H  0.67735845  0.04240708  0.40329248     0.18000
F1290       F  0.68123072  0.04753498  0.34456699    -0.19800
C1291       C  0.66172589  0.02276136  0.14130469    -0.21200
C1292       C  0.66867353  0.49807306  0.15713762    -0.09300
C1293       C  0.67451428  0.47379503  0.14009431     0.29600
C1294       C  0.67369331  0.47437819  0.10801142    -0.21200
C1295       C  0.66710964  0.49908449  0.09217620    -0.09300
C1296       C  0.66085022  0.02332370  0.10923810     0.29600
F1297       F  0.65338949  0.04743035  0.09508443    -0.19800
H1298       H  0.65661607  0.04163636  0.15377978     0.17900
H1299       H  0.67848803  0.45542187  0.09553867     0.18000
F1300       F  0.68147600  0.44955511  0.15427884    -0.19800
O1301       O  0.62578756  0.47625191  0.00060157    -0.74400
O1302       O  0.70579247  0.47591152  0.49874435    -0.74400
O1303       O  0.66660553  0.47611740  0.54366108    -0.74400
O1304       O  0.66506411  0.47584940  0.95579433    -0.74500
O1305       O  0.66560218  0.02230623  0.95556011    -0.74400
O1306       O  0.66614199  0.02247698  0.54357283    -0.74400
O1307       O  0.70569310  0.02222685  0.99898880    -0.74400
O1308       O  0.62596904  0.02281135  0.50002911    -0.74400
Ni1309     Ni  0.66580688  0.47440983  0.49975174     1.25400
Ni1310     Ni  0.66584658  0.02410784  0.49956916     1.25400
C1311       C  0.61286438  0.99964450  0.50050050     0.87800
C1312       C  0.71896757  0.99901852  0.99845144     0.87800
C1313       C  0.66653422  0.49934860  0.55816806     0.87800
C1314       C  0.66536280  0.49899360  0.94112242     0.88000
O1315       O  0.62986787  0.02269245  0.74985260    -0.74400
O1316       O  0.70969355  0.02043747  0.74918850    -0.74400
O1317       O  0.66952259  0.02134809  0.70557298    -0.74400
O1318       O  0.66997407  0.02187681  0.79339865    -0.74500
O1319       O  0.66865005  0.47551036  0.79379454    -0.74400
O1320       O  0.66901067  0.47498772  0.70580465    -0.74400
O1321       O  0.70883918  0.47411972  0.74983804    -0.74400
O1322       O  0.62892747  0.47619291  0.74982997    -0.74400
Ni1323     Ni  0.66983202  0.02323027  0.74948228     1.25400
Ni1324     Ni  0.66883273  0.47353836  0.74982493     1.25400
C1325       C  0.61635427  0.49977177  0.74998334     0.87800
C1326       C  0.72250915  0.49701961  0.74945746     0.87800
C1327       C  0.66916084  0.49816278  0.69114008     0.87800
C1328       C  0.66915093  0.49883567  0.80814999     0.88000
O1329       O  0.55340817  0.40450816  0.49978409    -0.74400
O1330       O  0.55447831  0.32459325  0.00109549    -0.74400
O1331       O  0.55401389  0.36400245  0.95655927    -0.74400
O1332       O  0.55405837  0.36510131  0.54424003    -0.74500
O1333       O  0.50762204  0.36484394  0.54454103    -0.74400
O1334       O  0.50758401  0.36347074  0.95657393    -0.74400
O1335       O  0.50801571  0.32429500  0.50140409    -0.74400
O1336       O  0.50684755  0.40407002  0.99984223    -0.74400
Ni1337     Ni  0.55564636  0.36459287  0.00039635     1.25400
Ni1338     Ni  0.50587371  0.36416319  0.00057963     1.25400
C1339       C  0.52993418  0.41734006  0.99970476     0.87800
C1340       C  0.53137378  0.31121197  0.00160481     0.87800
C1341       C  0.53085824  0.36355754  0.94200212     0.87800
C1342       C  0.53091337  0.36511116  0.55894508     0.88000
O1343       O  0.55490133  0.40380321  0.75007092    -0.74400
O1344       O  0.55307972  0.32410054  0.75061043    -0.74400
O1345       O  0.55382050  0.36384371  0.70639033    -0.74400
O1346       O  0.55379366  0.36401426  0.79435775    -0.74500
O1347       O  0.50736133  0.36493603  0.79434234    -0.74400
O1348       O  0.50739371  0.36499098  0.70663982    -0.74400
O1349       O  0.50665764  0.32498221  0.75060687    -0.74400
O1350       O  0.50834215  0.40494679  0.75030430    -0.74400
Ni1351     Ni  0.55555440  0.36389883  0.75035754     1.25400
Ni1352     Ni  0.50578545  0.36501561  0.75047966     1.25400
C1353       C  0.53192173  0.41740160  0.74994552     0.87800
C1354       C  0.52967070  0.31129823  0.75080239     0.87800
C1355       C  0.53054861  0.36454656  0.69196026     0.87800
C1356       C  0.53051096  0.36427160  0.80891244     0.88000
O1357       O  0.93359094  0.47728321  0.49925839    -0.74400
O1358       O  0.85373892  0.47579275  0.99801014    -0.74400
O1359       O  0.89441654  0.47638066  0.95469900    -0.74400
O1360       O  0.89321210  0.47684114  0.54262854    -0.74500
O1361       O  0.89181715  0.02321762  0.54248076    -0.74400
O1362       O  0.89351445  0.02283307  0.95452196    -0.74400
O1363       O  0.85278474  0.02226080  0.49762388    -0.74400
O1364       O  0.93262635  0.02381959  0.99929606    -0.74400
Ni1365     Ni  0.89373780  0.47487972  0.99866459     1.25400
Ni1366     Ni  0.89262568  0.02469029  0.99847090     1.25400
C1367       C  0.94614320  0.50072991  0.99949901     0.87800
C1368       C  0.84002639  0.49890647  0.49755059     0.87800
C1369       C  0.89427492  0.49956131  0.94005342     0.87800
C1370       C  0.89251037  0.50010564  0.55708041     0.88000
O1371       O  0.93606414  0.02289777  0.74845130    -0.74400
O1372       O  0.85637161  0.02097093  0.74888367    -0.74400
O1373       O  0.89630340  0.02155174  0.79252009    -0.74400
O1374       O  0.89586804  0.02223027  0.70461753    -0.74500
O1375       O  0.89739671  0.47585269  0.70428608    -0.74400
O1376       O  0.89725218  0.47515328  0.79227260    -0.74400
O1377       O  0.85726536  0.47464174  0.74829615    -0.74400
O1378       O  0.93723053  0.47637011  0.74839377    -0.74400
Ni1379     Ni  0.89613263  0.02354745  0.74861259     1.25400
Ni1380     Ni  0.89733575  0.47383128  0.74827115     1.25400
C1381       C  0.94967065  0.49993643  0.74864549     0.87800
C1382       C  0.84357308  0.49765572  0.74869161     0.87800
C1383       C  0.89678962  0.49829100  0.80696592     0.87800
C1384       C  0.89647083  0.49916586  0.68992079     0.88000
O1385       O  0.52965669  0.04045130  0.52608145    -0.74400
O1386       O  0.52916533  0.46060767  0.52551568    -0.74400
O1387       O  0.56929867  0.00004524  0.52606154    -0.74400
O1388       O  0.98938673  0.50090759  0.52550244    -0.74500
O1389       O  0.98978784  0.00124429  0.97422903    -0.74400
O1390       O  0.56961809  0.50040890  0.97474421    -0.74400
O1391       O  0.52955374  0.46089961  0.97422218    -0.74400
O1392       O  0.53004965  0.04079886  0.97478877    -0.74400
Ni1393     Ni  0.52934054  0.50051242  0.52763351     1.25400
Ni1394     Ni  0.52973790  0.50085922  0.97266143     1.25400
C1395       C  0.53006874  0.05363630  0.50052697     0.87800
C1396       C  0.52948307  0.44773653  0.99979608     0.87800
C1397       C  0.58249424  0.50000628  0.50046671     0.87800
C1398       C  0.97657031  0.50110923  0.49975019     0.88000
O1399       O  0.53264806  0.46078324  0.77535651    -0.74400
O1400       O  0.53268466  0.04049332  0.77569870    -0.74400
O1401       O  0.99276639  0.50066755  0.77492023    -0.74400
O1402       O  0.57275098  0.00045279  0.77560636    -0.74500
O1403       O  0.57308629  0.50067981  0.72430816    -0.74400
O1404       O  0.99333566  0.00087651  0.72360860    -0.74400
O1405       O  0.53315031  0.04085332  0.72440410    -0.74400
O1406       O  0.53311194  0.46082501  0.72405645    -0.74400
Ni1407     Ni  0.53272107  0.50062459  0.77722988     1.25400
Ni1408     Ni  0.53321055  0.50083948  0.72224627     1.25400
C1409       C  0.53263082  0.44778331  0.74973268     0.87800
C1410       C  0.53279724  0.05370404  0.75019173     0.87800
C1411       C  0.98003427  0.50058654  0.74910018     0.87800
C1412       C  0.58594916  0.50041960  0.75000063     0.88000
O1413       O  0.50753234  0.09752093  0.50125409    -0.74400
O1414       O  0.50898177  0.17734384  0.00246498    -0.74400
O1415       O  0.50777832  0.13804318  0.95787841    -0.74400
O1416       O  0.50885905  0.13683032  0.54572194    -0.74500
O1417       O  0.55529242  0.13607321  0.54497827    -0.74400
O1418       O  0.55420679  0.13708401  0.95718706    -0.74400
O1419       O  0.55536811  0.17653173  0.50160248    -0.74400
O1420       O  0.55409412  0.09664033  0.00055878    -0.74400
Ni1421     Ni  0.50664299  0.13749326  0.00185698     1.25400
Ni1422     Ni  0.55639342  0.13653723  0.50104685     1.25400
C1423       C  0.53058848  0.08406648  0.00077157     0.87800
C1424       C  0.53233869  0.19016294  0.50223176     0.87800
C1425       C  0.53084394  0.13770877  0.94296949     0.87800
C1426       C  0.53224746  0.13629916  0.55990215     0.88000
O1427       O  0.50895088  0.09692898  0.75112333    -0.74400
O1428       O  0.50789691  0.17685540  0.75163224    -0.74400
O1429       O  0.50848657  0.13699115  0.70754402    -0.74400
O1430       O  0.50838777  0.13676579  0.79537167    -0.74500
O1431       O  0.55482168  0.13702915  0.79520834    -0.74400
O1432       O  0.55491949  0.13749774  0.70736141    -0.74400
O1433       O  0.55431660  0.17717163  0.75161165    -0.74400
O1434       O  0.55551472  0.09735852  0.75084856    -0.74400
Ni1435     Ni  0.50677200  0.13686898  0.75143210     1.25400
Ni1436     Ni  0.55654294  0.13729045  0.75127346     1.25400
C1437       C  0.53240635  0.08410886  0.75065929     0.87800
C1438       C  0.53097868  0.19026414  0.75175010     0.87800
C1439       C  0.53168307  0.13709795  0.69289951     0.87800
C1440       C  0.53161805  0.13695659  0.80985842     0.88000
C1441       C  0.55604348  0.13569470  0.89276771    -0.21200
C1442       C  0.53071660  0.13785462  0.90891800    -0.09300
C1443       C  0.50570113  0.13990176  0.89213965     0.29600
C1444       C  0.50621265  0.13953872  0.86004554    -0.21200
C1445       C  0.53155633  0.13723727  0.84391516    -0.09300
C1446       C  0.55656296  0.13539617  0.86071781     0.29600
F1447       F  0.58162109  0.13311725  0.84635907    -0.19800
H1448       H  0.57565022  0.13408727  0.90494568     0.17900
H1449       H  0.98663145  0.14115792  0.84781972     0.18000
F1450       F  0.98068560  0.14235059  0.90656294    -0.19800
C1451       C  0.55708062  0.13789425  0.64269282    -0.21200
C1452       C  0.53171529  0.13662992  0.65887912    -0.09300
C1453       C  0.50667278  0.13474671  0.64217048     0.29600
C1454       C  0.50714395  0.13453190  0.61013162    -0.21200
C1455       C  0.53246458  0.13606346  0.59392483    -0.09300
C1456       C  0.55755588  0.13757864  0.61061541     0.29600
F1457       F  0.58260831  0.13896959  0.59612399    -0.19800
H1458       H  0.57670676  0.13922497  0.65485340     0.17900
H1459       H  0.98750284  0.13315603  0.59800715     0.18000
F1460       F  0.98162052  0.13302172  0.65661026    -0.19800
C1461       C  0.90087715  0.47448852  0.89015657    -0.21200
C1462       C  0.89508689  0.49939213  0.90600337    -0.09300
C1463       C  0.89014187  0.02386069  0.88891910     0.29600
C1464       C  0.89090991  0.02323262  0.85686928    -0.21200
C1465       C  0.89656512  0.49833742  0.84101653    -0.09300
C1466       C  0.90169201  0.47388547  0.85805962     0.29600
F1467       F  0.90781899  0.44941506  0.84387855    -0.19800
H1468       H  0.90497826  0.45537153  0.90262145     0.17900
H1469       H  0.88677092  0.04236117  0.84444118     0.18000
F1470       F  0.88414821  0.04839794  0.90301717    -0.19800
C1471       C  0.90424360  0.47696106  0.60670908    -0.21200
C1472       C  0.89306866  0.50004030  0.59106753    -0.09300
C1473       C  0.88298053  0.02275512  0.60821992     0.29600
C1474       C  0.88439019  0.02241192  0.64030852    -0.21200
C1475       C  0.89569154  0.49942351  0.65592978    -0.09300
C1476       C  0.90564428  0.47660869  0.63875079     0.29600
F1477       F  0.91736751  0.45420180  0.65280063    -0.19800
H1478       H  0.91236909  0.45925028  0.59407377     0.17900
H1479       H  0.87624508  0.04008948  0.65298366     0.18000
F1480       F  0.87119943  0.04510255  0.59410282    -0.19800
C1481       C  0.50517848  0.23583084  0.75079595    -0.21200
C1482       C  0.53065792  0.22123838  0.75194104    -0.09300
C1483       C  0.55561939  0.23661343  0.75310409     0.29600
C1484       C  0.55496140  0.26571446  0.75275479    -0.21200
C1485       C  0.52953736  0.28033577  0.75133978    -0.09300
C1486       C  0.50452653  0.26500989  0.75052474     0.29600
F1487       F  0.97938933  0.27805710  0.74933215    -0.19800
H1488       H  0.98560669  0.22465822  0.74997875     0.17900
H1489       H  0.57457718  0.27680962  0.75360392     0.18000
F1490       F  0.58080809  0.22369259  0.75461033    -0.19800
C1491       C  0.55696257  0.26558164  0.99984129    -0.21200
C1492       C  0.53161611  0.28025276  0.00233297    -0.09300
C1493       C  0.50666016  0.26494093  0.50535377     0.29600
C1494       C  0.50722797  0.23582598  0.50543313    -0.21200
C1495       C  0.53251364  0.22112768  0.50261137    -0.09300
C1496       C  0.55752609  0.23640840  0.99997766     0.29600
F1497       F  0.58253315  0.22329225  0.99723188    -0.19800
H1498       H  0.57648197  0.27668489  0.99755047     0.17900
H1499       H  0.98767053  0.22477927  0.50770749     0.18000
F1500       F  0.98162713  0.27797203  0.50833799    -0.19800
C1501       C  0.55566464  0.36556869  0.85908520    -0.21200
C1502       C  0.53040261  0.36373519  0.84295595    -0.09300
C1503       C  0.50535081  0.36130329  0.85974280     0.29600
C1504       C  0.50573455  0.36114402  0.89182078    -0.21200
C1505       C  0.53097934  0.36327744  0.90795113    -0.09300
C1506       C  0.55605839  0.36532848  0.89114989     0.29600
F1507       F  0.58105767  0.36733697  0.90552489    -0.19800
H1508       H  0.57528382  0.36735906  0.84688169     0.14900
H1509       H  0.98612125  0.35933496  0.90403214     0.18000
F1510       F  0.98040099  0.35891078  0.84533525    -0.19800
C1511       C  0.50574814  0.36701492  0.60920873    -0.21200
C1512       C  0.53104461  0.36530391  0.59297129    -0.09300
C1513       C  0.55615927  0.36357781  0.60963642     0.29600
C1514       C  0.55575927  0.36337771  0.64169717    -0.21200
C1515       C  0.53045156  0.36491350  0.65793469    -0.09300
C1516       C  0.50535098  0.36686679  0.64127019     0.29600
F1517       F  0.98032229  0.36869725  0.65577189    -0.19800
H1518       H  0.98609749  0.36848263  0.59709467     0.17900
H1519       H  0.57541210  0.36191661  0.65380745     0.18000
F1520       F  0.58119513  0.36186493  0.59513382    -0.19800
C1521       C  0.79804064  0.47196549  0.74801849    -0.21200
C1522       C  0.81259898  0.49736066  0.74895795    -0.09300
C1523       C  0.79718756  0.02231999  0.75024553     0.29600
C1524       C  0.76810259  0.02184009  0.75042146    -0.21200
C1525       C  0.75348604  0.49661926  0.74934964    -0.09300
C1526       C  0.76883142  0.47150059  0.74821152     0.29600
F1527       F  0.75577735  0.44645445  0.74715589    -0.19800
H1528       H  0.80925499  0.45234675  0.74707694     0.17900
H1529       H  0.75700836  0.04152436  0.75141975     0.18000
F1530       F  0.81005309  0.04745880  0.75137455    -0.19800
C1531       C  0.79417467  0.02379066  0.99671578    -0.21200
C1532       C  0.80905673  0.49858687  0.49704626    -0.09300
C1533       C  0.79395194  0.47342169  0.49711655     0.29600
C1534       C  0.76477596  0.47379229  0.49743147    -0.21200
C1535       C  0.74992645  0.99902521  0.99754226    -0.09300
C1536       C  0.76505278  0.02416489  0.99692814     0.29600
F1537       F  0.75186820  0.04925147  0.99662883    -0.19800
H1538       H  0.80509636  0.04351548  0.99647136     0.17900
H1539       H  0.75379450  0.45410107  0.49769188     0.18000
F1540       F  0.80721329  0.44837759  0.49701367    -0.19800
C1541       C  0.66155018  0.47461044  0.85826194    -0.21200
C1542       C  0.66840020  0.49905420  0.84217301    -0.09300
C1543       C  0.67402250  0.02348365  0.85895354     0.29600
C1544       C  0.67269005  0.02332775  0.89101235    -0.21200
C1545       C  0.66589256  0.49886789  0.90709721    -0.09300
C1546       C  0.66026423  0.47442981  0.89031527     0.29600
F1547       F  0.65316323  0.45036887  0.90472114    -0.19800
H1548       H  0.65690214  0.45554331  0.84601251     0.17900
H1549       H  0.67736267  0.04238744  0.90326474     0.18000
F1550       F  0.68124774  0.04750499  0.84454033    -0.19800
C1551       C  0.66122868  0.02261145  0.64131253    -0.21200
C1552       C  0.66866317  0.49824454  0.65712414    -0.09300
C1553       C  0.67553843  0.47424022  0.64008096     0.29600
C1554       C  0.67470272  0.47479713  0.60800061    -0.21200
C1555       C  0.66708748  0.49921507  0.59218953    -0.09300
C1556       C  0.66035099  0.02316219  0.60924595     0.29600
F1557       F  0.65237620  0.04710245  0.59508700    -0.19800
H1558       H  0.65572666  0.04137111  0.65380062     0.17900
H1559       H  0.68032666  0.45607792  0.59550478     0.18000
F1560       F  0.68358453  0.45034031  0.65427468    -0.19800
O1561       O  0.62581217  0.97625712  0.50065315    -0.74400
O1562       O  0.70575694  0.97581789  0.99872622    -0.74400
O1563       O  0.66655271  0.97605599  0.04363673    -0.74400
O1564       O  0.66507043  0.97588093  0.45582991    -0.74500
O1565       O  0.66562177  0.52237323  0.45558768    -0.74400
O1566       O  0.66617844  0.52243649  0.04354072    -0.74400
O1567       O  0.70570200  0.52232084  0.49903729    -0.74400
O1568       O  0.62597775  0.52280585  0.00001714    -0.74400
Ni1569     Ni  0.66576602  0.97434581  0.99972443     1.25400
Ni1570     Ni  0.66585679  0.52407302  0.99953749     1.25400
C1571       C  0.61285610  0.49964865  0.00047046     0.87800
C1572       C  0.71898976  0.49911922  0.49848757     0.87800
C1573       C  0.66652780  0.99928645  0.05814729     0.87800
C1574       C  0.66536225  0.99902429  0.44115595     0.88000
O1575       O  0.62988979  0.52269343  0.24983868    -0.74400
O1576       O  0.70971082  0.52037642  0.24922804    -0.74400
O1577       O  0.66957351  0.52128219  0.20558700    -0.74400
O1578       O  0.66997214  0.52187821  0.29341109    -0.74500
O1579       O  0.66864473  0.97549652  0.29384001    -0.74400
O1580       O  0.66899828  0.97492642  0.20584739    -0.74400
O1581       O  0.70883887  0.97406098  0.24988309    -0.74400
O1582       O  0.62892355  0.97617906  0.24987604    -0.74400
Ni1583     Ni  0.66985480  0.52319815  0.24949370     1.25400
Ni1584     Ni  0.66882763  0.97350110  0.24987092     1.25400
C1585       C  0.61636499  0.99976600  0.24999567     0.87800
C1586       C  0.72251937  0.99695552  0.24950694     0.87800
C1587       C  0.66918049  0.99809134  0.19116311     0.87800
C1588       C  0.66913816  0.99882920  0.30818167     0.88000
O1589       O  0.55339116  0.90454274  0.99978044    -0.74400
O1590       O  0.55441072  0.82455695  0.50109553    -0.74400
O1591       O  0.55397023  0.86396756  0.45656286    -0.74400
O1592       O  0.55405839  0.86513929  0.04423602    -0.74500
O1593       O  0.50762206  0.86487341  0.04454198    -0.74400
O1594       O  0.50754018  0.86345661  0.45656966    -0.74400
O1595       O  0.50802119  0.82432069  0.00140691    -0.74400
O1596       O  0.50681765  0.90405256  0.49984475    -0.74400
Ni1597     Ni  0.55559630  0.86455363  0.50040050     1.25400
Ni1598     Ni  0.50582350  0.86414400  0.50057561     1.25400
C1599       C  0.52991079  0.91731261  0.49971044     0.87800
C1600       C  0.53130228  0.81118290  0.50160091     0.87800
C1601       C  0.53081645  0.86353366  0.44200153     0.87800
C1602       C  0.53091465  0.86515091  0.05894333     0.88000
O1603       O  0.55489531  0.90383573  0.25008591    -0.74400
O1604       O  0.55306295  0.82413490  0.25059714    -0.74400
O1605       O  0.55381671  0.86389206  0.20639133    -0.74400
O1606       O  0.55377402  0.86403366  0.29435967    -0.74500
O1607       O  0.50734200  0.86496327  0.29433512    -0.74400
O1608       O  0.50738997  0.86504372  0.20663289    -0.74400
O1609       O  0.50664091  0.82502139  0.25058610    -0.74400
O1610       O  0.50833610  0.90498563  0.25030870    -0.74400
Ni1611     Ni  0.55554281  0.86393222  0.25035926     1.25400
Ni1612     Ni  0.50577394  0.86505524  0.25047188     1.25400
C1613       C  0.53191759  0.91743679  0.24995586     0.87800
C1614       C  0.52965265  0.81133506  0.25078214     0.87800
C1615       C  0.53054702  0.86460366  0.19195742     0.87800
C1616       C  0.53048891  0.86428963  0.30891001     0.88000
O1617       O  0.93358528  0.97727028  0.99927017    -0.74400
O1618       O  0.85373913  0.97585676  0.49804034    -0.74400
O1619       O  0.89439496  0.97640534  0.45470620    -0.74400
O1620       O  0.89318789  0.97676976  0.04262120    -0.74500
O1621       O  0.89177076  0.52315223  0.04249479    -0.74400
O1622       O  0.89352948  0.52285862  0.45450547    -0.74400
O1623       O  0.85276671  0.52219666  0.99761070    -0.74400
O1624       O  0.93266962  0.52383319  0.49925191    -0.74400
Ni1625     Ni  0.89373541  0.97492382  0.49867337     1.25400
Ni1626     Ni  0.89266835  0.52473894  0.49845379     1.25400
C1627       C  0.94615380  0.00074358  0.49946877     0.87800
C1628       C  0.84000392  0.99881702  0.99751938     0.87800
C1629       C  0.89425290  0.99958040  0.44004971     0.87800
C1630       C  0.89245909  0.00002820  0.05708358     0.88000
O1631       O  0.93605272  0.52288142  0.24843313    -0.74400
O1632       O  0.85636444  0.52090472  0.24888308    -0.74400
O1633       O  0.89629868  0.52152037  0.29250974    -0.74400
O1634       O  0.89584904  0.52217413  0.20460703    -0.74500
O1635       O  0.89742240  0.97581393  0.20429041    -0.74400
O1636       O  0.89727225  0.97514318  0.29227645    -0.74400
O1637       O  0.85728784  0.97459618  0.24830144    -0.74400
O1638       O  0.93725535  0.97637464  0.24840038    -0.74400
Ni1639     Ni  0.89612163  0.52350456  0.24860164     1.25400
Ni1640     Ni  0.89736078  0.97380878  0.24827642     1.25400
C1641       C  0.94968131  0.99994923  0.24863967     0.87800
C1642       C  0.84358431  0.99760391  0.24869859     0.87800
C1643       C  0.89679348  0.99828390  0.30696291     0.87800
C1644       C  0.89647343  0.99912182  0.18991718     0.88000
O1645       O  0.52964785  0.54047438  0.02608888    -0.74400
O1646       O  0.52914302  0.96063205  0.02551989    -0.74400
O1647       O  0.56929772  0.50007319  0.02604691    -0.74400
O1648       O  0.98936933  0.00093549  0.02552531    -0.74500
O1649       O  0.98981844  0.50121509  0.47420614    -0.74400
O1650       O  0.56963528  0.00037660  0.47475881    -0.74400
O1651       O  0.52956103  0.96087214  0.47422443    -0.74400
O1652       O  0.53007232  0.54077237  0.47477825    -0.74400
Ni1653     Ni  0.52932492  0.00053597  0.02764124     1.25400
Ni1654     Ni  0.52975623  0.00083246  0.47265888     1.25400
C1655       C  0.53005013  0.55366185  0.00053571     0.87800
C1656       C  0.52947558  0.94771052  0.49979946     0.87800
C1657       C  0.58247131  0.00001115  0.00045489     0.87800
C1658       C  0.97654602  0.00113123  0.99977700     0.88000
O1659       O  0.53264836  0.96081840  0.27536332    -0.74400
O1660       O  0.53267819  0.54052962  0.27570143    -0.74400
O1661       O  0.99277530  0.00070699  0.27491805    -0.74400
O1662       O  0.57275146  0.50049188  0.27562054    -0.74500
O1663       O  0.57310011  0.00070212  0.22431450    -0.74400
O1664       O  0.99334274  0.50089633  0.22360866    -0.74400
O1665       O  0.53314860  0.54088599  0.22440700    -0.74400
O1666       O  0.53311845  0.96085668  0.22406313    -0.74400
Ni1667     Ni  0.53273002  0.00065868  0.27723219     1.25400
Ni1668     Ni  0.53322441  0.00087050  0.22224863     1.25400
C1669       C  0.53263154  0.94781726  0.24974066     0.87800
C1670       C  0.53279130  0.55373886  0.25019336     0.87800
C1671       C  0.98004515  0.00061866  0.24909675     0.87800
C1672       C  0.58596039  0.00043392  0.25000846     0.88000
O1673       O  0.50751916  0.59755105  0.00126485    -0.74400
O1674       O  0.50892772  0.67730720  0.50247180    -0.74400
O1675       O  0.50774853  0.63801468  0.45787601    -0.74400
O1676       O  0.50885404  0.63687049  0.04572282    -0.74500
O1677       O  0.55528727  0.63610591  0.04497875    -0.74400
O1678       O  0.55417748  0.63707543  0.45718980    -0.74400
O1679       O  0.55537008  0.67655597  0.00159197    -0.74400
O1680       O  0.55408153  0.59662487  0.50055275    -0.74400
Ni1681     Ni  0.50660891  0.63745513  0.50185473     1.25400
Ni1682     Ni  0.55638734  0.63656044  0.00104653     1.25400
C1683       C  0.53058220  0.58404013  0.50076082     0.87800
C1684       C  0.53234278  0.69019084  0.00221948     0.87800
C1685       C  0.53081582  0.63769471  0.44296971     0.87800
C1686       C  0.53224229  0.63633835  0.05990284     0.88000
O1687       O  0.50894084  0.59696288  0.25112162    -0.74400
O1688       O  0.50787921  0.67689033  0.25163029    -0.74400
O1689       O  0.50847484  0.63702701  0.20754303    -0.74400
O1690       O  0.50837195  0.63679921  0.29537024    -0.74500
O1691       O  0.55480590  0.63706479  0.29521006    -0.74400
O1692       O  0.55490767  0.63753846  0.20736305    -0.74400
O1693       O  0.55429883  0.67720996  0.25161420    -0.74400
O1694       O  0.55550453  0.59739648  0.25084817    -0.74400
Ni1695     Ni  0.50675820  0.63690336  0.25143066     1.25400
Ni1696     Ni  0.55652904  0.63732887  0.25127507     1.25400
C1697       C  0.53239740  0.58414447  0.25065855     0.87800
C1698       C  0.53095994  0.69030087  0.25174802     0.87800
C1699       C  0.53167195  0.63713817  0.19289987     0.87800
C1700       C  0.53160144  0.63698842  0.30985853     0.88000
C1701       C  0.55601830  0.63567154  0.39276998    -0.21200
C1702       C  0.53069201  0.63785224  0.40891826    -0.09300
C1703       C  0.50568043  0.63993371  0.39213796     0.29600
C1704       C  0.50619469  0.63958303  0.36004374    -0.21200
C1705       C  0.53153747  0.63726021  0.34391527    -0.09300
C1706       C  0.55654055  0.63538505  0.36071985     0.29600
F1707       F  0.58159723  0.63308115  0.34636267    -0.19800
H1708       H  0.57562196  0.63403679  0.40494970     0.17900
H1709       H  0.98661646  0.64122911  0.34781625     0.18000
F1710       F  0.98066645  0.64240703  0.40655958    -0.19800
C1711       C  0.55707297  0.63791783  0.14269492    -0.21200
C1712       C  0.53170559  0.63667427  0.15887956    -0.09300
C1713       C  0.50666217  0.63481505  0.14216931     0.29600
C1714       C  0.50713500  0.63459990  0.11013071    -0.21200
C1715       C  0.53245804  0.63610776  0.09392548    -0.09300
C1716       C  0.55754973  0.63760202  0.11061751     0.29600
F1717       F  0.58260420  0.63896955  0.09612759    -0.19800
H1718       H  0.57669972  0.63923030  0.15485681     0.17900
H1719       H  0.98749309  0.63324207  0.09800530     0.18000
F1720       F  0.98160721  0.63311484  0.15660712    -0.19800
C1721       C  0.90086273  0.97449726  0.39016056    -0.21200
C1722       C  0.89505036  0.99939952  0.40599964    -0.09300
C1723       C  0.89013955  0.52386066  0.38890538     0.29600
C1724       C  0.89091411  0.52322244  0.35685621    -0.21200
C1725       C  0.89655009  0.99833530  0.34101355    -0.09300
C1726       C  0.90168703  0.97388927  0.35806392     0.29600
F1727       F  0.90783566  0.94942060  0.34389036    -0.19800
H1728       H  0.90497886  0.95538669  0.40263148     0.17900
H1729       H  0.88679667  0.54235158  0.34442069     0.18000
F1730       F  0.88416367  0.54840712  0.40299297    -0.19800
C1731       C  0.90431247  0.97693433  0.10670728    -0.21200
C1732       C  0.89301405  0.99995550  0.09106940    -0.09300
C1733       C  0.88285082  0.52263326  0.10822408     0.29600
C1734       C  0.88427251  0.52229717  0.14031162    -0.21200
C1735       C  0.89567605  0.99936632  0.15592802    -0.09300
C1736       C  0.90573362  0.97659692  0.13874935     0.29600
F1737       F  0.91758459  0.95425768  0.15280047    -0.19800
H1738       H  0.91252443  0.95926537  0.09406795     0.17900
H1739       H  0.87606034  0.53994196  0.15299029     0.18000
F1740       F  0.87097361  0.54493102  0.09410924    -0.19800
C1741       C  0.50515898  0.73586756  0.25075737    -0.21200
C1742       C  0.53063762  0.72127531  0.25193130    -0.09300
C1743       C  0.55559800  0.73665076  0.25311279     0.29600
C1744       C  0.55494023  0.76575145  0.25275700    -0.21200
C1745       C  0.52951748  0.78037268  0.25131650    -0.09300
C1746       C  0.50450729  0.76504690  0.25047874     0.29600
F1747       F  0.97937151  0.77809446  0.24925621    -0.19800
H1748       H  0.98558811  0.72469452  0.24992276     0.17900
H1749       H  0.57455543  0.77684647  0.25362358     0.18000
F1750       F  0.58078565  0.72373062  0.25464562    -0.19800
C1751       C  0.55688809  0.76555509  0.49983557    -0.21200
C1752       C  0.53154240  0.78022400  0.50233205    -0.09300
C1753       C  0.50666930  0.76497009  0.00533681     0.29600
C1754       C  0.50723607  0.73585552  0.00541320    -0.21200
C1755       C  0.53252118  0.72115612  0.00259526    -0.09300
C1756       C  0.55745584  0.73638436  0.49997683     0.29600
F1757       F  0.58246388  0.72327078  0.49722449    -0.19800
H1758       H  0.57640902  0.77666066  0.49753627     0.17900
H1759       H  0.98767764  0.72480991  0.00768324     0.18000
F1760       F  0.98163565  0.77800075  0.00831623    -0.19800
C1761       C  0.55563828  0.86551730  0.35908850    -0.21200
C1762       C  0.53037474  0.86373938  0.34295394    -0.09300
C1763       C  0.50531616  0.86134751  0.35973613     0.29600
C1764       C  0.50569546  0.86117619  0.39181433    -0.21200
C1765       C  0.53094210  0.86325742  0.40794998    -0.09300
C1766       C  0.55602748  0.86526385  0.39115328     0.29600
F1767       F  0.58102942  0.86721372  0.40553283    -0.19800
H1768       H  0.57526287  0.86727271  0.34688923     0.14900
H1769       H  0.98607682  0.85940199  0.40402167     0.18000
F1770       F  0.98036312  0.85900983  0.34532409    -0.19800
C1771       C  0.50575268  0.86709346  0.10920568    -0.21200
C1772       C  0.53104792  0.86535982  0.09296912    -0.09300
C1773       C  0.55616207  0.86362940  0.10963475     0.29600
C1774       C  0.55576146  0.86343420  0.14169581    -0.21200
C1775       C  0.53045376  0.86498234  0.15793215    -0.09300
C1776       C  0.50535511  0.86695374  0.14126673     0.29600
F1777       F  0.98032765  0.86880887  0.15576718    -0.19800
H1778       H  0.98610305  0.86857157  0.09709117     0.17900
H1779       H  0.57541310  0.86196385  0.15380716     0.18000
F1780       F  0.58119729  0.86190462  0.09513241    -0.19800
C1781       C  0.79805445  0.97190203  0.24804509    -0.21200
C1782       C  0.81261012  0.99729926  0.24898247    -0.09300
C1783       C  0.79719055  0.52223970  0.25029172     0.29600
C1784       C  0.76810703  0.52175991  0.25047721    -0.21200
C1785       C  0.75349674  0.99655069  0.24940183    -0.09300
C1786       C  0.76884402  0.97143377  0.24825206     0.29600
F1787       F  0.75579050  0.94638757  0.24719503    -0.19800
H1788       H  0.80927171  0.95228539  0.24709239     0.17900
H1789       H  0.75701528  0.54144509  0.25148734     0.18000
F1790       F  0.81005425  0.54737921  0.25143003    -0.19800
C1791       C  0.79419996  0.52389474  0.49673866    -0.21200
C1792       C  0.80903447  0.99848504  0.99700069    -0.09300
C1793       C  0.79393277  0.97331763  0.99704279     0.29600
C1794       C  0.76475494  0.97368498  0.99736013    -0.21200
C1795       C  0.74994878  0.49913307  0.49758535    -0.09300
C1796       C  0.76507622  0.52427155  0.49694946     0.29600
F1797       F  0.75189061  0.54935713  0.49662131    -0.19800
H1798       H  0.80512535  0.54361730  0.49647322     0.17900
H1799       H  0.75377333  0.95399369  0.99760023     0.18000
F1800       F  0.80719898  0.94827629  0.99691074    -0.19800
C1801       C  0.66151001  0.97462843  0.35830316    -0.21200
C1802       C  0.66837168  0.99906396  0.34220495    -0.09300
C1803       C  0.67402399  0.52352121  0.35896929     0.29600
C1804       C  0.67270040  0.52337882  0.39102932    -0.21200
C1805       C  0.66587369  0.99889532  0.40713034    -0.09300
C1806       C  0.66022695  0.97445706  0.39035665     0.29600
F1807       F  0.65311266  0.95040432  0.40477128    -0.19800
H1808       H  0.65685380  0.95555958  0.34606081     0.17900
H1809       H  0.67739064  0.54243901  0.40327252     0.18000
F1810       F  0.68126083  0.54753177  0.34454131    -0.19800
C1811       C  0.66207032  0.52276307  0.14130074    -0.21200
C1812       C  0.66868021  0.99816422  0.15713412    -0.09300
C1813       C  0.67486471  0.97397133  0.14009149     0.29600
C1814       C  0.67403087  0.97454213  0.10801000    -0.21200
C1815       C  0.66709673  0.99915445  0.09218095    -0.09300
C1816       C  0.66120845  0.52333882  0.10923535     0.29600
F1817       F  0.65411939  0.54755953  0.09508811    -0.19800
H1818       H  0.65723634  0.54171372  0.15376711     0.17900
H1819       H  0.67910172  0.95565942  0.09553132     0.18000
F1820       F  0.68219416  0.94984060  0.15427891    -0.19800
O1821       O  0.62579233  0.97627550  0.00062806    -0.74400
O1822       O  0.70577469  0.97582100  0.49872766    -0.74400
O1823       O  0.66658637  0.97603521  0.54364910    -0.74400
O1824       O  0.66506453  0.97587366  0.95581731    -0.74500
O1825       O  0.66560548  0.52228199  0.95555751    -0.74400
O1826       O  0.66612612  0.52256039  0.54357421    -0.74400
O1827       O  0.70570555  0.52217145  0.99897210    -0.74400
O1828       O  0.62596649  0.52286179  0.50001612    -0.74400
Ni1829     Ni  0.66578604  0.97433856  0.49973661     1.25400
Ni1830     Ni  0.66584419  0.52417975  0.49956875     1.25400
C1831       C  0.61287384  0.49968787  0.50049895     0.87800
C1832       C  0.71897240  0.49895936  0.99843214     0.87800
C1833       C  0.66653581  0.99926333  0.55816324     0.87800
C1834       C  0.66536120  0.99901243  0.94113520     0.88000
O1835       O  0.62985184  0.52273605  0.74986252    -0.74400
O1836       O  0.70968085  0.52051891  0.74917741    -0.74400
O1837       O  0.66949730  0.52143049  0.70557184    -0.74400
O1838       O  0.66996756  0.52192187  0.79339848    -0.74500
O1839       O  0.66864675  0.97546589  0.79381759    -0.74400
O1840       O  0.66900142  0.97490727  0.70582516    -0.74400
O1841       O  0.70883600  0.97403875  0.74985847    -0.74400
O1842       O  0.62892152  0.97614997  0.74985425    -0.74400
Ni1843     Ni  0.66981615  0.52329403  0.74948255     1.25400
Ni1844     Ni  0.66882675  0.97347575  0.74984786     1.25400
C1845       C  0.61635918  0.99973508  0.74998911     0.87800
C1846       C  0.72251388  0.99693428  0.74947502     0.87800
C1847       C  0.66916811  0.99807643  0.69114905     0.87800
C1848       C  0.66915123  0.99879710  0.80816177     0.88000
O1849       O  0.55338261  0.90450451  0.49978965    -0.74400
O1850       O  0.55444429  0.82459213  0.00109224    -0.74400
O1851       O  0.55398465  0.86400187  0.95655764    -0.74400
O1852       O  0.55402829  0.86509592  0.54424105    -0.74500
O1853       O  0.50759188  0.86484130  0.54453923    -0.74400
O1854       O  0.50755479  0.86347994  0.95657386    -0.74400
O1855       O  0.50798723  0.82429423  0.50140158    -0.74400
O1856       O  0.50682635  0.90407741  0.99984462    -0.74400
Ni1857     Ni  0.55561826  0.86459157  0.00039465     1.25400
Ni1858     Ni  0.50584571  0.86416956  0.00057933     1.25400
C1859       C  0.52991524  0.91734406  0.99970522     0.87800
C1860       C  0.53133837  0.81121305  0.00159903     0.87800
C1861       C  0.53082854  0.86356182  0.94200118     0.87800
C1862       C  0.53088260  0.86510603  0.55894460     0.88000
O1863       O  0.55487987  0.90379809  0.75006219    -0.74400
O1864       O  0.55304602  0.82409813  0.75061700    -0.74400
O1865       O  0.55379116  0.86383347  0.70638875    -0.74400
O1866       O  0.55376397  0.86401689  0.79435652    -0.74500
O1867       O  0.50733203  0.86494912  0.79433984    -0.74400
O1868       O  0.50736445  0.86498468  0.70663872    -0.74400
O1869       O  0.50662401  0.82498431  0.75061658    -0.74400
O1870       O  0.50832082  0.90495001  0.75029228    -0.74400
Ni1871     Ni  0.55552573  0.86389478  0.75035613     1.25400
Ni1872     Ni  0.50575693  0.86501881  0.75047795     1.25400
C1873       C  0.53190299  0.91740038  0.74993337     0.87800
C1874       C  0.52963606  0.81129816  0.75081495     0.87800
C1875       C  0.53051899  0.86453660  0.69195900     0.87800
C1876       C  0.53048093  0.86428218  0.80891076     0.88000
O1877       O  0.93359373  0.97725748  0.49925472    -0.74400
O1878       O  0.85372952  0.97585104  0.99802159    -0.74400
O1879       O  0.89440282  0.97640923  0.95470584    -0.74400
O1880       O  0.89320981  0.97676809  0.54262112    -0.74500
O1881       O  0.89185336  0.52329099  0.54246470    -0.74400
O1882       O  0.89352121  0.52280427  0.95453756    -0.74400
O1883       O  0.85280606  0.52233634  0.49761932    -0.74400
O1884       O  0.93262213  0.52378548  0.99932243    -0.74400
Ni1885     Ni  0.89372723  0.97492676  0.99867264     1.25400
Ni1886     Ni  0.89262197  0.52464312  0.99848722     1.25400
C1887       C  0.94613998  0.00075951  0.99948694     0.87800
C1888       C  0.84001690  0.99882460  0.49754333     0.87800
C1889       C  0.89426292  0.99958419  0.94004916     0.87800
C1890       C  0.89248601  0.00002626  0.55708410     0.88000
O1891       O  0.93607306  0.52291910  0.74847585    -0.74400
O1892       O  0.85637772  0.52103910  0.74888481    -0.74400
O1893       O  0.89630303  0.52157944  0.79253300    -0.74400
O1894       O  0.89588839  0.52229404  0.70462996    -0.74500
O1895       O  0.89740786  0.97578915  0.70429327    -0.74400
O1896       O  0.89727208  0.97512569  0.79228069    -0.74400
O1897       O  0.85728060  0.97457380  0.74830983    -0.74400
O1898       O  0.93724678  0.97634932  0.74839689    -0.74400
Ni1899     Ni  0.89614185  0.52359289  0.74862638     1.25400
Ni1900     Ni  0.89735282  0.97378610  0.74827983     1.25400
C1901       C  0.94967433  0.99992281  0.74863335     0.87800
C1902       C  0.84357774  0.99758171  0.74870226     0.87800
C1903       C  0.89679868  0.99826881  0.80696342     0.87800
C1904       C  0.89646063  0.99909680  0.68991894     0.88000
O1905       O  0.52965504  0.54045640  0.52607457    -0.74400
O1906       O  0.52914740  0.96060242  0.52552286    -0.74400
O1907       O  0.56930690  0.50006253  0.52605669    -0.74400
O1908       O  0.98937803  0.00090950  0.52551393    -0.74500
O1909       O  0.98978882  0.50123050  0.97423688    -0.74400
O1910       O  0.56961638  0.00041122  0.97474663    -0.74400
O1911       O  0.52954611  0.96090471  0.97422137    -0.74400
O1912       O  0.53004409  0.54079333  0.97479271    -0.74400
Ni1913     Ni  0.52933229  0.00050677  0.52764120     1.25400
Ni1914     Ni  0.52973686  0.00086515  0.97265890     1.25400
C1915       C  0.53006527  0.55364184  0.50052054     0.87800
C1916       C  0.52946995  0.94774172  0.99979559     0.87800
C1917       C  0.58248453  0.99998049  0.50047063     0.87800
C1918       C  0.97655981  0.00110733  0.49976270     0.88000
O1919       O  0.53263909  0.96077882  0.77534729    -0.74400
O1920       O  0.53267333  0.54049805  0.77569765    -0.74400
O1921       O  0.99276812  0.00066955  0.77491107    -0.74400
O1922       O  0.57274900  0.50047004  0.77560576    -0.74500
O1923       O  0.57309328  0.00066889  0.72430893    -0.74400
O1924       O  0.99332966  0.50086852  0.72361762    -0.74400
O1925       O  0.53313398  0.54085302  0.72440283    -0.74400
O1926       O  0.53310792  0.96082506  0.72404721    -0.74400
Ni1927     Ni  0.53272255  0.00061911  0.77722560     1.25400
Ni1928     Ni  0.53321722  0.00083969  0.72224217     1.25400
C1929       C  0.53261963  0.94778142  0.74972210     0.87800
C1930       C  0.53278078  0.55370599  0.75018899     0.87800
C1931       C  0.98003801  0.00058861  0.74908978     0.87800
C1932       C  0.58595382  0.00039874  0.75000285     0.88000
O1933       O  0.50752160  0.59752255  0.50125042    -0.74400
O1934       O  0.50895084  0.67733709  0.00245857    -0.74400
O1935       O  0.50775548  0.63802993  0.95787818    -0.74400
O1936       O  0.50884149  0.63682890  0.54572256    -0.74500
O1937       O  0.55527492  0.63607764  0.54498072    -0.74400
O1938       O  0.55418410  0.63707884  0.95718767    -0.74400
O1939       O  0.55534731  0.67653781  0.50160773    -0.74400
O1940       O  0.55407864  0.59664003  0.00056410    -0.74400
Ni1941     Ni  0.50661919  0.63748482  0.00185591     1.25400
Ni1942     Ni  0.55637748  0.63654454  0.50104874     1.25400
C1943       C  0.53057566  0.58406139  0.00077623     0.87800
C1944       C  0.53231647  0.69016620  0.50223745     0.87800
C1945       C  0.53082123  0.63769741  0.94296986     0.87800
C1946       C  0.53222939  0.63630085  0.55990385     0.88000
O1947       O  0.50892969  0.59692793  0.75111743    -0.74400
O1948       O  0.50786901  0.67685389  0.75164461    -0.74400
O1949       O  0.50846263  0.63699770  0.70754626    -0.74400
O1950       O  0.50836337  0.63675587  0.79537380    -0.74500
O1951       O  0.55479725  0.63702478  0.79521056    -0.74400
O1952       O  0.55489550  0.63750654  0.70736450    -0.74400
O1953       O  0.55428864  0.67717384  0.75162241    -0.74400
O1954       O  0.55549357  0.59736169  0.75084490    -0.74400
Ni1955     Ni  0.50674756  0.63686745  0.75143455     1.25400
Ni1956     Ni  0.55651851  0.63729314  0.75127635     1.25400
C1957       C  0.53238639  0.58411020  0.75065384     0.87800
C1958       C  0.53094966  0.69026443  0.75176530     0.87800
C1959       C  0.53165937  0.63710708  0.69290210     0.87800
C1960       C  0.53159370  0.63694685  0.80986042     0.88000
C1961       C  0.55602136  0.63569519  0.89276838    -0.21200
C1962       C  0.53069341  0.63783930  0.90891884    -0.09300
C1963       C  0.50567615  0.63986846  0.89214120     0.29600
C1964       C  0.50618730  0.63950584  0.86004742    -0.21200
C1965       C  0.53153226  0.63722265  0.84391675    -0.09300
C1966       C  0.55654043  0.63539724  0.86071865     0.29600
F1967       F  0.58159995  0.63313676  0.84635941    -0.19800
H1968       H  0.57562935  0.63410154  0.90494599     0.17900
H1969       H  0.98660473  0.64111165  0.84782219     0.18000
F1970       F  0.98065908  0.64229947  0.90656482    -0.19800
C1971       C  0.55705933  0.63789095  0.64269642    -0.21200
C1972       C  0.53169257  0.63664029  0.65888153    -0.09300
C1973       C  0.50664993  0.63476876  0.64217154     0.29600
C1974       C  0.50712265  0.63455031  0.61013263    -0.21200
C1975       C  0.53244492  0.63606726  0.59392692    -0.09300
C1976       C  0.55753607  0.63757211  0.61061899     0.29600
F1977       F  0.58259004  0.63894852  0.59612905    -0.19800
H1978       H  0.57668565  0.63921218  0.65485795     0.17900
H1979       H  0.98748119  0.63318386  0.59800730     0.18000
F1980       F  0.98159582  0.63305932  0.65661006    -0.19800
C1981       C  0.90089808  0.97450022  0.89016464    -0.21200
C1982       C  0.89507395  0.99940221  0.90599945    -0.09300
C1983       C  0.89018503  0.52386312  0.88893419     0.29600
C1984       C  0.89094434  0.52324470  0.85688401    -0.21200
C1985       C  0.89656789  0.99832732  0.84101376    -0.09300
C1986       C  0.90172062  0.97388731  0.85806810     0.29600
F1987       F  0.90788166  0.94941995  0.84389824    -0.19800
H1988       H  0.90502210  0.95539314  0.90263891     0.17900
H1989       H  0.88682899  0.54238326  0.84446521     0.18000
F1990       F  0.88423113  0.54840461  0.90304327    -0.19800
C1991       C  0.90428679  0.97690762  0.60670854    -0.21200
C1992       C  0.89303396  0.99995071  0.59107003    -0.09300
C1993       C  0.88309848  0.52288228  0.60821623     0.29600
C1994       C  0.88450163  0.52253308  0.64030583    -0.21200
C1995       C  0.89566631  0.99934333  0.65592978    -0.09300
C1996       C  0.90569138  0.97656005  0.63875090     0.29600
F1997       F  0.91749325  0.95419493  0.65280189    -0.19800
H1998       H  0.91247346  0.95922662  0.59407000     0.17900
H1999       H  0.87641781  0.54023956  0.65297895     0.18000
F2000       F  0.87140469  0.54527489  0.59409824    -0.19800
C2001       C  0.50514507  0.73582988  0.75085108    -0.21200
C2002       C  0.53062662  0.72123858  0.75196342    -0.09300
C2003       C  0.55558837  0.73661480  0.75309851     0.29600
C2004       C  0.55492858  0.76571549  0.75274837    -0.21200
C2005       C  0.52950256  0.78033583  0.75136107    -0.09300
C2006       C  0.50449144  0.76500909  0.75058019     0.29600
F2007       F  0.97935236  0.77805558  0.74942231    -0.19800
H2008       H  0.98557281  0.72465626  0.75005906     0.17900
H2009       H  0.57454504  0.77681111  0.75357221     0.18000
F2010       F  0.58077947  0.72369554  0.75457416    -0.19800
C2011       C  0.55692576  0.76558132  0.99983467    -0.21200
C2012       C  0.53158017  0.78025254  0.00232171    -0.09300
C2013       C  0.50663399  0.76494123  0.50536764     0.29600
C2014       C  0.50720338  0.73582653  0.50544943    -0.21200
C2015       C  0.53248909  0.72113004  0.50261754    -0.09300
C2016       C  0.55749062  0.73640911  0.99996991     0.29600
F2017       F  0.58249830  0.72329275  0.99722996    -0.19800
H2018       H  0.57644837  0.77668624  0.99754922     0.17900
H2019       H  0.98764736  0.72477867  0.50773354     0.18000
F2020       F  0.98160148  0.77797171  0.50836254    -0.19800
C2021       C  0.55563983  0.86549480  0.85908336    -0.21200
C2022       C  0.53037098  0.86374882  0.84295460    -0.09300
C2023       C  0.50531103  0.86140232  0.85974248     0.29600
C2024       C  0.50569547  0.86123807  0.89182024    -0.21200
C2025       C  0.53094822  0.86328313  0.90795002    -0.09300
C2026       C  0.55603388  0.86524954  0.89114790     0.29600
F2027       F  0.58104151  0.86716323  0.90552162    -0.19800
H2028       H  0.57526538  0.86721557  0.84687974     0.14900
H2029       H  0.98607582  0.85949828  0.90403180     0.18000
F2030       F  0.98035114  0.85910378  0.84533686    -0.19800
C2031       C  0.50571633  0.86699977  0.60920816    -0.21200
C2032       C  0.53101314  0.86529577  0.59297062    -0.09300
C2033       C  0.55612824  0.86357359  0.60963541     0.29600
C2034       C  0.55572863  0.86337153  0.64169591    -0.21200
C2035       C  0.53042090  0.86490144  0.65793363    -0.09300
C2036       C  0.50531953  0.86684955  0.64126960     0.29600
F2037       F  0.98029030  0.86867281  0.65577164    -0.19800
H2038       H  0.98606516  0.86846338  0.59709423     0.17900
H2039       H  0.57538194  0.86191462  0.65380583     0.18000
F2040       F  0.58116449  0.86186748  0.59513274    -0.19800
C2041       C  0.79804805  0.97188119  0.74799414    -0.21200
C2042       C  0.81260373  0.99727694  0.74897808    -0.09300
C2043       C  0.79718565  0.52240768  0.75017474     0.29600
C2044       C  0.76809946  0.52193082  0.75035008    -0.21200
C2045       C  0.75349079  0.99652960  0.74937201    -0.09300
C2046       C  0.76883767  0.97141353  0.74818770     0.29600
F2047       F  0.75578391  0.94636913  0.74708130    -0.19800
H2048       H  0.80926522  0.95226563  0.74701291     0.17900
H2049       H  0.75700574  0.54161695  0.75130870     0.18000
F2050       F  0.81005522  0.54754632  0.75125212    -0.19800
C2051       C  0.79417900  0.52372442  0.99664131    -0.21200
C2052       C  0.80904750  0.99849405  0.49703243    -0.09300
C2053       C  0.79394634  0.97332649  0.49715092     0.29600
C2054       C  0.76476911  0.97369366  0.49746114    -0.21200
C2055       C  0.74993104  0.49896060  0.99752131    -0.09300
C2056       C  0.76505778  0.52409898  0.99684802     0.29600
F2057       F  0.75187426  0.54918543  0.99648152    -0.19800
H2058       H  0.80510016  0.54344908  0.99634888     0.17900
H2059       H  0.75378880  0.95400222  0.49776259     0.18000
F2060       F  0.80721245  0.94828483  0.49710600    -0.19800
C2061       C  0.66154966  0.97459376  0.85828712    -0.21200
C2062       C  0.66839791  0.99903087  0.84218509    -0.09300
C2063       C  0.67402908  0.52349851  0.85895408     0.29600
C2064       C  0.67269659  0.52332865  0.89101264    -0.21200
C2065       C  0.66588966  0.99887311  0.90710987    -0.09300
C2066       C  0.66026298  0.97442734  0.89034059     0.29600
F2067       F  0.65316291  0.95037233  0.90475908    -0.19800
H2068       H  0.65690391  0.95552067  0.84604788     0.17900
H2069       H  0.67737195  0.54238236  0.90327502     0.18000
F2070       F  0.68125892  0.54752462  0.84455335    -0.19800
C2071       C  0.66102424  0.52264675  0.64131407    -0.21200
C2072       C  0.66866870  0.99815122  0.65712914    -0.09300
C2073       C  0.67534322  0.97408926  0.64008688     0.29600
C2074       C  0.67450927  0.97464976  0.60800532    -0.21200
C2075       C  0.66709277  0.99912653  0.59218863    -0.09300
C2076       C  0.66014473  0.52319336  0.60924676     0.29600
F2077       F  0.65196150  0.54706228  0.59508496    -0.19800
H2078       H  0.65536283  0.54135617  0.65380884     0.17900
H2079       H  0.67997301  0.95588152  0.59551417     0.18000
F2080       F  0.68318070  0.95012056  0.65428046    -0.19800
loop_ 
_geom_bond_atom_site_label_1 
_geom_bond_atom_site_label_2 
_geom_bond_distance 
_geom_bond_site_symmetry_2 
_ccdc_geom_bond_type 
O1         Ni269   1.919       .  S
O1          C791   1.280       .  A
O2           Ni9   1.920       .  S
O2          C792   1.282       .  A
O3           Ni9   1.915   1_554  S
O3           C13   1.281       .  A
O4         Ni269   1.914       .  S
O4           C14   1.281       .  A
O5         Ni270   1.917       .  S
O5          C534   1.282   1_545  A
O6          Ni10   1.918   1_554  S
O6          C533   1.282   1_545  A
O7         Ni270   1.913       .  S
O7           C12   1.281   1_545  A
O8          Ni10   1.913   1_554  S
O8           C11   1.279   1_545  A
Ni9         O261   1.919   1_556  S
Ni9         O264   1.914       .  S
Ni9        Ni530   2.387       .  S
Ni10        O265   1.917       .  S
Ni10        O267   1.913       .  S
Ni10       Ni529   2.387   1_545  S
C11         O781   1.280       .  A
C11         C617   1.457   1_565  S
C12         O782   1.282       .  A
C12         C235   1.485       .  S
C13         O526   1.282       .  A
C13         C255   1.483       .  S
C14         O525   1.282       .  A
C14         C245   1.482       .  S
O15         Ni23   1.917       .  S
O15         C545   1.279   1_545  A
O16         Ni23   1.916       .  S
O16         C546   1.282   1_545  A
O17         Ni23   1.915       .  S
O17         C547   1.281   1_545  A
O18         Ni23   1.914       .  S
O18         C548   1.281   1_545  A
O19         Ni24   1.917       .  S
O19          C28   1.282       .  A
O20         Ni24   1.918       .  S
O20          C27   1.282       .  A
O21         Ni24   1.919       .  S
O21          C26   1.281       .  A
O22         Ni24   1.917       .  S
O22          C25   1.280       .  A
Ni23       Ni544   2.387   1_545  S
Ni24       Ni543   2.387       .  S
C25         O535   1.279       .  A
C25         C112   1.458       .  S
C26         O536   1.282       .  A
C26         C225   1.485       .  S
C27         O537   1.281       .  A
C27         C252   1.482       .  S
C28         O538   1.281       .  A
C28         C242   1.482       .  S
O29        Ni297   1.919   1_556  S
O29         C299   1.280       .  A
O30         Ni37   1.920       .  S
O30          C40   1.282       .  A
O31         Ni37   1.911       .  S
O31          C41   1.280       .  A
O32        Ni297   1.911       .  S
O32          C42   1.280       .  A
O33        Ni298   1.917       .  S
O33          C42   1.282       .  A
O34         Ni38   1.918       .  S
O34          C41   1.283       .  A
O35        Ni298   1.914       .  S
O35         C300   1.281       .  A
O36         Ni38   1.915       .  S
O36          C39   1.279       .  A
Ni37        O289   1.919       .  S
Ni37        O292   1.911       .  S
Ni37        Ni38   2.387       .  S
Ni38        O293   1.917       .  S
Ni38        O295   1.914       .  S
C39         O289   1.280       .  A
C39          C96   1.458       .  S
C40         O295   1.281       .  A
C40         C192   1.485       .  S
C41         C205   1.483       .  S
C42         C212   1.482       .  S
O43         Ni51   1.914       .  S
O43          C53   1.279       .  A
O44         Ni51   1.913       .  S
O44          C54   1.281       .  A
O45         Ni51   1.917       .  S
O45          C55   1.282       .  A
O46         Ni51   1.918       .  S
O46          C56   1.283       .  A
O47         Ni52   1.912       .  S
O47          C56   1.280       .  A
O48         Ni52   1.911       .  S
O48          C55   1.280       .  A
O49         Ni52   1.921       .  S
O49          C54   1.282       .  A
O50         Ni52   1.920       .  S
O50          C53   1.281       .  A
Ni51        Ni52   2.387       .  S
C53         C109   1.458       .  S
C54         C185   1.485       .  S
C55         C215   1.482       .  S
C56         C202   1.483       .  S
O57        Ni325   1.915       .  S
O57         C327   1.279       .  A
O58         Ni65   1.918       .  S
O58         C328   1.281       .  A
O59         Ni65   1.916       .  S
O59          C69   1.282       .  A
O60        Ni325   1.916   1_554  S
O60          C70   1.282       .  A
O61        Ni326   1.918   1_554  S
O61         C590   1.281       .  A
O62         Ni66   1.916       .  S
O62         C589   1.282   1_545  A
O63        Ni326   1.916       .  S
O63         C588   1.282   1_545  A
O64         Ni66   1.919       .  S
O64         C587   1.280       .  A
Ni65        O317   1.915       .  S
Ni65        O320   1.916       .  S
Ni65       Ni586   2.387       .  S
Ni66        O321   1.918       .  S
Ni66        O323   1.916       .  S
Ni66       Ni585   2.387   1_545  S
C67         O317   1.279       .  A
C67         O584   1.280       .  A
C67         C358   1.458       .  S
C68         O318   1.282       .  A
C68         O583   1.282       .  A
C68         C232   1.485       .  S
C69         O582   1.282       .  A
C69         C162   1.483       .  S
C70         O581   1.281       .  A
C70         C172   1.480       .  S
O71         Ni79   1.915       .  S
O71         C601   1.279   1_545  A
O72         Ni79   1.911       .  S
O72         C602   1.281   1_545  A
O73         Ni79   1.915       .  S
O73         C603   1.282   1_545  A
O74         Ni79   1.917       .  S
O74         C604   1.281   1_545  A
O75         Ni80   1.918       .  S
O75          C84   1.282       .  A
O76         Ni80   1.917       .  S
O76          C83   1.281       .  A
O77         Ni80   1.922       .  S
O77          C82   1.283       .  A
O78         Ni80   1.917       .  S
O78          C81   1.280       .  A
Ni79       Ni600   2.387   1_545  S
Ni80       Ni599   2.387       .  S
C81         O591   1.279       .  A
C81         C111   1.457       .  S
C82         O592   1.281       .  A
C82         C222   1.485       .  S
C83         O593   1.282       .  A
C83         C165   1.483       .  S
C84         O594   1.281       .  A
C84         C175   1.481       .  S
O85        Ni613   1.917       .  S
O85          C95   1.280       .  A
O86         Ni93   1.916       .  S
O86         C356   1.280   1_554  A
O87        Ni613   1.918       .  S
O87         C617   1.280       .  A
O88       Ni1133   1.918       .  S
O88          C98   1.280   1_554  A
O89       Ni1654   1.917       .  S
O89         C878   1.280       .  A
O90         Ni94   1.915       .  S
O90         C357   1.279       .  A
O91         Ni94   1.918       .  S
O91          C96   1.280       .  A
O92        Ni614   1.918       .  S
O92         C355   1.280       .  A
Ni93        O605   1.917       .  S
Ni93        O607   1.918       .  S
Ni93       O1128   1.918   1_455  S
Ni93       Ni354   2.395   1_554  S
Ni94       O1649   1.917   1_455  S
Ni94        O612   1.918       .  S
Ni94       Ni353   2.395       .  S
C95         O352   1.280   1_554  A
C95         C383   1.458       .  S
C96         O346   1.280       .  A
C97         O607   1.280       .  A
C97         O350   1.279   1_554  A
C97         C531   1.457       .  S
C98         O869   1.280       .  A
C98         C327   1.458       .  S
O99        Ni107   1.913       .  S
O99         C109   1.279       .  A
O100       Ni627   1.914       .  S
O100        C110   1.279       .  A
O101      Ni1147   1.919       .  S
O101        C111   1.281       .  A
O102       Ni627   1.920       .  S
O102        C632   1.281       .  A
O103       Ni108   1.914       .  S
O103        C112   1.279       .  A
O104      Ni1668   1.913       .  S
O104        C631   1.279       .  A
O105       Ni628   1.922       .  S
O105        C110   1.281       .  A
O106       Ni108   1.921       .  S
O106        C109   1.281       .  A
Ni107       O620   1.914       .  S
Ni107      O1141   1.919   1_455  S
Ni107       O622   1.921       .  S
Ni107      Ni108   2.395       .  S
Ni108      O1664   1.913   1_455  S
Ni108       O625   1.922       .  S
C110        C137   1.459       .  S
C111        O624   1.279       .  A
C112        O622   1.281       .  A
O113       Ni381   1.916       .  S
O113        C383   1.279       .  A
O114       Ni121   1.915       .  S
O114        C384   1.282       .  A
O115       Ni121   1.916       .  S
O115        C125   1.281       .  A
O116       Ni381   1.914       .  S
O116        C126   1.282       .  A
O117       Ni122   1.914       .  S
O117        C126   1.281       .  A
O118       Ni382   1.913       .  S
O118        C125   1.282       .  A
O119       Ni122   1.919       .  S
O119        C124   1.282       .  A
O120       Ni382   1.919       .  S
O120        C123   1.280       .  A
Ni121       O373   1.916       .  S
Ni121       O376   1.914       .  S
Ni121      Ni382   2.387       .  S
Ni122       O378   1.913   1_554  S
Ni122       O380   1.919       .  S
Ni122      Ni381   2.387       .  S
C123        O373   1.279       .  A
C123        C355   1.458       .  S
C124        O374   1.282       .  A
C124        C195   1.485       .  S
C125        C142   1.483       .  S
C126        C155   1.482       .  S
O127       Ni135   1.918       .  S
O127        C137   1.280       .  A
O128       Ni135   1.919       .  S
O128        C138   1.282       .  A
O129       Ni135   1.913       .  S
O129        C139   1.281       .  A
O130       Ni135   1.915       .  S
O130        C140   1.282       .  A
O131       Ni136   1.915       .  S
O131        C140   1.281       .  A
O132       Ni136   1.914       .  S
O132        C139   1.281       .  A
O133       Ni136   1.916       .  S
O133        C138   1.281       .  A
O134       Ni136   1.916       .  S
O134        C137   1.279       .  A
Ni135      Ni136   2.387       .  S
C138        C182   1.486       .  S
C139        C152   1.482       .  S
C140        C145   1.483       .  S
C141        C142   1.406       .  A
C141        C146   1.396       .  A
C141        H148   1.083       .  S
C142        C143   1.409       .  A
C143        C144   1.398       .  A
C143       F1190   1.357   1_455  S
C144        C145   1.406       .  A
C144       H1189   1.083   1_455  S
C145        C146   1.409       .  A
C146        F147   1.357       .  S
H149       C1184   1.083       .  S
F150       C1183   1.357       .  S
C151        C152   1.406       .  A
C151        C156   1.397       .  A
C151        H158   1.083       .  S
C152        C153   1.409       .  A
C153        C154   1.395       .  A
C153       F1200   1.357   1_455  S
C154        C155   1.405       .  A
C154       H1199   1.083   1_455  S
C155        C156   1.409       .  A
C156        F157   1.357       .  S
H159       C1194   1.083       .  S
F160       C1193   1.357       .  S
C161        C162   1.406       .  A
C161        C166   1.399       .  A
C161        H168   1.083       .  S
C162        C683   1.408       .  A
C163        C164   1.396       .  A
C163        C682   1.408   1_545  A
C163        F170   1.357       .  S
C164        C685   1.405   1_545  A
C164        H169   1.083       .  S
C165        C166   1.409       .  A
C165        C684   1.405       .  A
C166        F167   1.358       .  S
C171        C172   1.405       .  A
C171        C176   1.397       .  A
C171        H178   1.083       .  S
C172        C693   1.408       .  A
C173        C174   1.399       .  A
C173        C692   1.408   1_545  A
C173        F180   1.358       .  S
C174        C695   1.406   1_545  A
C174        H179   1.083       .  S
C175        C176   1.407       .  A
C175        C694   1.406       .  A
C176        F177   1.357       .  S
C181        C182   1.407       .  A
C181        C186   1.400       .  A
C181       H1228   1.083   1_455  S
C182        C183   1.409       .  A
C183        C184   1.396       .  A
C183        F190   1.357       .  S
C184        C185   1.406       .  A
C184        H189   1.083       .  S
C185        C186   1.409       .  A
C186       F1227   1.357   1_455  S
F187       C1226   1.357       .  S
H188       C1221   1.083       .  S
C191        C192   1.406       .  A
C191        C196   1.399       .  A
C191        H198   1.083       .  S
C192        C453   1.409       .  A
C193        C194   1.397       .  A
C193        C452   1.409       .  A
C193       F1240   1.357   1_455  S
C194        C195   1.406       .  A
C194       H1239   1.083   1_455  S
C195        C456   1.410   1_554  A
C196        C455   1.410       .  A
C196        F197   1.357       .  S
H199       C1234   1.083       .  S
F200       C1233   1.357       .  S
C201        C202   1.405       .  A
C201        C206   1.397       .  A
C201        H208   1.083       .  S
C202        C203   1.410       .  A
C203        C204   1.397       .  A
C203       F1250   1.357   1_455  S
C204        C205   1.405       .  A
C204       H1249   1.083   1_455  S
C205        C206   1.410       .  A
C206        F207   1.357       .  S
H209       C1244   1.083       .  S
F210       C1243   1.357       .  S
C211        C212   1.405       .  A
C211        C216   1.396       .  A
C211       H1258   1.083   1_455  S
C212        C213   1.410       .  A
C213        C214   1.396       .  A
C213        F220   1.357       .  S
C214        C215   1.405       .  A
C214        H219   1.083       .  S
C215        C216   1.410       .  A
C216       F1257   1.357   1_455  S
F217       C1256   1.357       .  S
H218       C1251   1.083       .  S
C221        C222   1.407       .  A
C221        C226   1.401       .  A
C221        H228   1.083       .  S
C222        C743   1.409       .  A
C223        C224   1.395       .  A
C223        C742   1.409   1_545  A
C223        F230   1.357       .  S
C224        C745   1.405   1_545  A
C224        H229   1.083       .  S
C225        C226   1.410       .  A
C225        C744   1.405       .  A
C226        F227   1.357       .  S
C231        C236   1.397       .  A
C231       C1012   1.405   1_545  A
C231        H238   1.083       .  S
C232        C233   1.410       .  A
C232       C1011   1.405       .  A
C233        C234   1.399       .  A
C233        F240   1.357       .  S
C234       C1015   1.406       .  A
C234        H239   1.083       .  S
C235        C236   1.410   1_565  A
C235       C1014   1.406       .  A
C236        F237   1.357       .  S
C241        C242   1.405       .  A
C241        C246   1.397       .  A
C241        H248   1.083       .  S
C242        C763   1.409       .  A
C243        C244   1.397       .  A
C243        C762   1.409   1_545  A
C243        F250   1.357       .  S
C244        C765   1.405   1_545  A
C244        H249   1.083       .  S
C245        C246   1.409       .  A
C245        C764   1.405       .  A
C246        F247   1.357       .  S
C251        C256   1.397       .  A
C251        C772   1.406   1_545  A
C251        H258   1.083       .  S
C252        C253   1.408       .  A
C252        C771   1.406       .  A
C253        C254   1.398       .  A
C253        F260   1.357       .  S
C254        C255   1.406       .  A
C254        H259   1.083       .  S
C255        C776   1.408       .  A
C256        C775   1.408   1_545  A
C256        F257   1.357       .  S
O261        C531   1.280       .  A
O262       Ni269   1.919       .  S
O262        C532   1.282       .  A
O263       Ni269   1.915       .  S
O263        C273   1.281       .  A
O264        C274   1.281       .  A
O265        C794   1.282   1_545  A
O266       Ni270   1.918       .  S
O266        C793   1.282   1_545  A
O267        C272   1.281   1_545  A
O268       Ni270   1.913       .  S
O268        C271   1.279   1_545  A
Ni269      Ni790   2.387       .  S
Ni270      Ni789   2.387   1_545  S
C271        O521   1.280       .  A
C271        C877   1.457       .  S
C272        O522   1.282       .  A
C272        C495   1.485       .  S
C273        O786   1.282       .  A
C273        C515   1.482       .  S
C274        O785   1.282       .  A
C274        C505   1.482       .  S
O275       Ni283   1.917       .  S
O275        C805   1.279   1_545  A
O276       Ni283   1.916       .  S
O276        C806   1.282   1_545  A
O277       Ni283   1.914       .  S
O277        C807   1.281   1_545  A
O278       Ni283   1.914       .  S
O278        C808   1.281   1_545  A
O279       Ni284   1.917       .  S
O279        C288   1.282       .  A
O280       Ni284   1.918       .  S
O280        C287   1.282       .  A
O281       Ni284   1.919       .  S
O281        C286   1.281       .  A
O282       Ni284   1.917       .  S
O282        C285   1.280       .  A
Ni283      Ni804   2.387   1_545  S
Ni284      Ni803   2.387       .  S
C285        O795   1.280       .  A
C285        C372   1.458       .  S
C286        O796   1.282       .  A
C286        C485   1.485       .  S
C287        O797   1.281       .  A
C287        C512   1.482       .  S
C288        O798   1.281       .  A
C288        C502   1.482       .  S
O290       Ni297   1.920       .  S
O290        C300   1.282       .  A
O291       Ni297   1.911   1_556  S
O291        C301   1.280       .  A
O292        C302   1.280       .  A
O293        C302   1.282       .  A
O294       Ni298   1.918   1_556  S
O294        C301   1.283       .  A
O296       Ni298   1.915   1_556  S
O296        C299   1.279       .  A
Ni297      Ni298   2.387       .  S
C299        C356   1.458       .  S
C300        C452   1.485       .  S
C301        C465   1.483       .  S
C302        C472   1.482       .  S
O303       Ni311   1.914       .  S
O303        C313   1.279       .  A
O304       Ni311   1.913       .  S
O304        C314   1.281       .  A
O305       Ni311   1.917       .  S
O305        C315   1.282       .  A
O306       Ni311   1.918       .  S
O306        C316   1.283       .  A
O307       Ni312   1.912       .  S
O307        C316   1.280       .  A
O308       Ni312   1.911       .  S
O308        C315   1.280       .  A
O309       Ni312   1.921       .  S
O309        C314   1.282       .  A
O310       Ni312   1.920       .  S
O310        C313   1.281       .  A
Ni311      Ni312   2.387       .  S
C313        C369   1.458       .  S
C314        C445   1.485       .  S
C315        C475   1.482       .  S
C316        C462   1.483       .  S
O318       Ni325   1.919       .  S
O319       Ni325   1.916       .  S
O319        C329   1.282       .  A
O320        C330   1.282       .  A
O321        C850   1.281       .  A
O322       Ni326   1.916       .  S
O322        C849   1.282   1_545  A
O323        C848   1.282   1_545  A
O324       Ni326   1.919       .  S
O324        C847   1.280       .  A
Ni325      Ni846   2.387       .  S
Ni326      Ni845   2.387   1_545  S
C327        O844   1.280       .  A
C328        O843   1.282       .  A
C328        C492   1.485       .  S
C329        O842   1.282       .  A
C329        C422   1.483       .  S
C330        O841   1.281       .  A
C330        C432   1.480       .  S
O331       Ni339   1.915       .  S
O331        C861   1.279   1_545  A
O332       Ni339   1.911       .  S
O332        C862   1.281   1_545  A
O333       Ni339   1.915       .  S
O333        C863   1.282   1_545  A
O334       Ni339   1.917       .  S
O334        C864   1.281   1_545  A
O335       Ni340   1.918       .  S
O335        C344   1.282       .  A
O336       Ni340   1.917       .  S
O336        C343   1.281       .  A
O337       Ni340   1.922       .  S
O337        C342   1.283       .  A
O338       Ni340   1.917       .  S
O338        C341   1.280       .  A
Ni339      Ni860   2.387   1_545  S
Ni340      Ni859   2.387       .  S
C341        O851   1.279       .  A
C341        C371   1.457       .  S
C342        O852   1.281       .  A
C342        C482   1.485       .  S
C343        O853   1.282       .  A
C343        C425   1.483       .  S
C344        O854   1.281       .  A
C344        C435   1.481       .  S
O345       Ni873   1.917       .  S
O345        C355   1.280       .  A
O346       Ni353   1.916       .  S
O347       Ni873   1.918       .  S
O347        C877   1.280   1_545  A
O348      Ni1393   1.918       .  S
O348        C358   1.280       .  A
O349      Ni1914   1.917       .  S
O349        C618   1.280       .  A
O350       Ni354   1.915       .  S
O351       Ni354   1.918       .  S
O351        C356   1.280       .  A
O352       Ni874   1.918       .  S
Ni353       O865   1.917       .  S
Ni353       O867   1.918       .  S
Ni353      O1388   1.918   1_455  S
Ni354      O1909   1.917   1_455  S
Ni354       O872   1.918       .  S
C357        O867   1.280       .  A
C357        C791   1.457       .  S
C358        O609   1.280       .  A
O359       Ni367   1.913       .  S
O359        C369   1.279       .  A
O360       Ni887   1.914       .  S
O360        C370   1.279       .  A
O361      Ni1407   1.919       .  S
O361        C371   1.281       .  A
O362       Ni887   1.921       .  S
O362        C892   1.281       .  A
O363       Ni368   1.914       .  S
O363        C372   1.279       .  A
O364      Ni1928   1.913       .  S
O364        C891   1.279       .  A
O365       Ni888   1.922       .  S
O365        C370   1.281       .  A
O366       Ni368   1.921       .  S
O366        C369   1.281       .  A
Ni367       O880   1.914       .  S
Ni367      O1401   1.919   1_455  S
Ni367       O882   1.920       .  S
Ni367      Ni368   2.395       .  S
Ni368      O1924   1.913   1_455  S
Ni368       O885   1.922       .  S
C370        C397   1.459       .  S
C371        O884   1.279       .  A
C372        O882   1.281       .  A
O374       Ni381   1.915       .  S
O375       Ni381   1.916   1_556  S
O375        C385   1.281       .  A
O376        C386   1.282       .  A
O377       Ni382   1.914       .  S
O377        C386   1.281       .  A
O378        C385   1.282       .  A
O379       Ni382   1.919       .  S
O379        C384   1.282       .  A
O380        C383   1.280       .  A
C384        C455   1.485       .  S
C385        C402   1.483       .  S
C386        C415   1.482       .  S
O387       Ni395   1.918       .  S
O387        C397   1.280       .  A
O388       Ni395   1.919       .  S
O388        C398   1.282       .  A
O389       Ni395   1.913       .  S
O389        C399   1.281       .  A
O390       Ni395   1.915       .  S
O390        C400   1.282       .  A
O391       Ni396   1.915       .  S
O391        C400   1.281       .  A
O392       Ni396   1.914       .  S
O392        C399   1.281       .  A
O393       Ni396   1.916       .  S
O393        C398   1.281       .  A
O394       Ni396   1.916       .  S
O394        C397   1.279       .  A
Ni395      Ni396   2.387       .  S
C398        C442   1.486       .  S
C399        C412   1.482       .  S
C400        C405   1.483       .  S
C401        C402   1.406       .  A
C401        C406   1.396       .  A
C401        H408   1.083       .  S
C402        C403   1.409       .  A
C403        C404   1.398       .  A
C403       F1450   1.357   1_455  S
C404        C405   1.406       .  A
C404       H1449   1.083   1_455  S
C405        C406   1.409       .  A
C406        F407   1.357       .  S
H409       C1444   1.083       .  S
F410       C1443   1.357       .  S
C411        C412   1.406       .  A
C411        C416   1.397       .  A
C411        H418   1.083       .  S
C412        C413   1.409       .  A
C413        C414   1.395       .  A
C413       F1460   1.357   1_455  S
C414        C415   1.405       .  A
C414       H1459   1.083   1_455  S
C415        C416   1.409       .  A
C416        F417   1.357       .  S
H419       C1454   1.083       .  S
F420       C1453   1.357       .  S
C421        C422   1.406       .  A
C421        C426   1.399       .  A
C421        H428   1.083       .  S
C422        C943   1.408       .  A
C423        C942   1.408   1_545  A
C423        C424   1.396       .  A
C423        F430   1.357       .  S
C424        C945   1.405   1_545  A
C424        H429   1.083       .  S
C425        C944   1.405       .  A
C425        C426   1.409       .  A
C426        F427   1.358       .  S
C431        C432   1.405       .  A
C431        C436   1.397       .  A
C431        H438   1.083       .  S
C432        C953   1.408       .  A
C433        C952   1.408   1_545  A
C433        C434   1.399       .  A
C433        F440   1.358       .  S
C434        C955   1.406   1_545  A
C434        H439   1.083       .  S
C435        C954   1.406       .  A
C435        C436   1.407       .  A
C436        F437   1.357       .  S
C441        C442   1.407       .  A
C441        C446   1.400       .  A
C441       H1488   1.083   1_455  S
C442        C443   1.409       .  A
C443        C444   1.396       .  A
C443        F450   1.357       .  S
C444        C445   1.406       .  A
C444        H449   1.083       .  S
C445        C446   1.409       .  A
C446       F1487   1.357   1_455  S
F447       C1486   1.357       .  S
H448       C1481   1.083       .  S
C451        C452   1.406   1_556  A
C451        C456   1.400       .  A
C451        H458   1.083       .  S
C453        C454   1.397       .  A
C453       F1500   1.357   1_455  S
C454        C455   1.406       .  A
C454       H1499   1.083   1_455  S
C456        F457   1.357       .  S
H459       C1494   1.083       .  S
F460       C1493   1.357       .  S
C461        C462   1.405       .  A
C461        C466   1.397       .  A
C461        H468   1.083       .  S
C462        C463   1.410       .  A
C463        C464   1.397       .  A
C463       F1510   1.357   1_455  S
C464        C465   1.405       .  A
C464       H1509   1.083   1_455  S
C465        C466   1.410       .  A
C466        F467   1.357       .  S
H469       C1504   1.083       .  S
F470       C1503   1.357       .  S
C471        C472   1.405       .  A
C471        C476   1.396       .  A
C471       H1518   1.083   1_455  S
C472        C473   1.410       .  A
C473        C474   1.396       .  A
C473        F480   1.357       .  S
C474        C475   1.405       .  A
C474        H479   1.083       .  S
C475        C476   1.410       .  A
C476       F1517   1.357   1_455  S
F477       C1516   1.357       .  S
H478       C1511   1.083       .  S
C481        C482   1.407       .  A
C481        C486   1.401       .  A
C481        H488   1.083       .  S
C482       C1003   1.409       .  A
C483       C1002   1.409   1_545  A
C483        C484   1.395       .  A
C483        F490   1.357       .  S
C484       C1005   1.405   1_545  A
C484        H489   1.083       .  S
C485       C1004   1.405       .  A
C485        C486   1.410       .  A
C486        F487   1.357       .  S
C491        C752   1.405   1_545  A
C491        C496   1.396       .  A
C491        H498   1.083       .  S
C492        C751   1.406       .  A
C492        C493   1.410       .  A
C493        C494   1.399       .  A
C493        F500   1.357       .  S
C494        C755   1.406       .  A
C494        H499   1.083       .  S
C495        C754   1.406       .  A
C495        C496   1.410   1_565  A
C496        F497   1.357       .  S
C501        C502   1.405       .  A
C501        C506   1.397       .  A
C501        H508   1.083       .  S
C502       C1023   1.409       .  A
C503       C1022   1.409   1_545  A
C503        C504   1.397       .  A
C503        F510   1.357       .  S
C504       C1025   1.405   1_545  A
C504        H509   1.083       .  S
C505       C1024   1.405       .  A
C505        C506   1.409       .  A
C506        F507   1.357       .  S
C511       C1032   1.406   1_545  A
C511        C516   1.397       .  A
C511        H518   1.083       .  S
C512       C1031   1.406       .  A
C512        C513   1.408       .  A
C513        C514   1.398       .  A
C513        F520   1.357       .  S
C514        C515   1.406       .  A
C514        H519   1.083       .  S
C515       C1036   1.408       .  A
C516       C1035   1.408   1_545  A
C516        F517   1.357       .  S
O521       Ni789   1.919       .  S
O522       Ni529   1.920       .  S
O523       Ni529   1.915   1_554  S
O523        C533   1.281       .  A
O524       Ni789   1.914       .  S
O524        C534   1.281       .  A
O525       Ni790   1.917       .  S
O526       Ni530   1.918   1_554  S
O527       Ni790   1.913       .  S
O527        C532   1.281       .  A
O528       Ni530   1.913   1_554  S
O528        C531   1.279       .  A
Ni529       O781   1.919   1_556  S
Ni529       O784   1.914       .  S
Ni530       O785   1.917       .  S
Ni530       O787   1.913       .  S
C532        C755   1.485       .  S
C533        C775   1.482       .  S
C534        C765   1.482       .  S
O535       Ni543   1.917       .  S
O536       Ni543   1.915       .  S
O537       Ni543   1.914       .  S
O538       Ni543   1.914       .  S
O539       Ni544   1.917       .  S
O539        C548   1.282       .  A
O540       Ni544   1.918       .  S
O540        C547   1.282       .  A
O541       Ni544   1.919       .  S
O541        C546   1.281       .  A
O542       Ni544   1.917       .  S
O542        C545   1.280       .  A
C545        C632   1.458   1_565  S
C546        C745   1.485       .  S
C547        C772   1.482       .  S
C548        C762   1.482       .  S
O549       Ni817   1.919   1_556  S
O549        C819   1.280       .  A
O550       Ni557   1.920       .  S
O550        C560   1.282       .  A
O551       Ni557   1.911       .  S
O551        C561   1.280       .  A
O552       Ni817   1.911       .  S
O552        C562   1.280       .  A
O553       Ni818   1.917       .  S
O553        C562   1.282       .  A
O554       Ni558   1.918       .  S
O554        C561   1.283       .  A
O555       Ni818   1.914       .  S
O555        C820   1.281       .  A
O556       Ni558   1.915       .  S
O556        C559   1.279       .  A
Ni557       O809   1.919       .  S
Ni557       O812   1.911       .  S
Ni557      Ni558   2.387       .  S
Ni558       O813   1.917       .  S
Ni558       O815   1.914       .  S
C559        O809   1.280       .  A
C559        C616   1.458       .  S
C560        O815   1.281       .  A
C560        C712   1.485       .  S
C561        C725   1.483       .  S
C562        C732   1.482       .  S
O563       Ni571   1.914       .  S
O563        C573   1.279       .  A
O564       Ni571   1.913       .  S
O564        C574   1.281       .  A
O565       Ni571   1.917       .  S
O565        C575   1.282       .  A
O566       Ni571   1.918       .  S
O566        C576   1.283       .  A
O567       Ni572   1.912       .  S
O567        C576   1.280       .  A
O568       Ni572   1.911       .  S
O568        C575   1.280       .  A
O569       Ni572   1.921       .  S
O569        C574   1.282       .  A
O570       Ni572   1.920       .  S
O570        C573   1.281       .  A
Ni571      Ni572   2.387       .  S
C573        C629   1.458       .  S
C574        C705   1.485       .  S
C575        C735   1.482       .  S
C576        C722   1.483       .  S
O577       Ni845   1.915       .  S
O577        C847   1.279   1_565  A
O578       Ni585   1.918       .  S
O578        C848   1.281       .  A
O579       Ni585   1.916       .  S
O579        C589   1.282       .  A
O580       Ni845   1.916   1_554  S
O580        C590   1.282   1_565  A
O581       Ni846   1.918   1_554  S
O582       Ni586   1.916       .  S
O583       Ni846   1.916       .  S
O584       Ni586   1.919       .  S
Ni585       O837   1.915       .  S
Ni585       O840   1.916       .  S
Ni586       O841   1.918       .  S
Ni586       O843   1.916       .  S
C587        O837   1.279   1_545  A
C587        C878   1.458       .  S
C588        O838   1.282       .  A
C588        C752   1.485       .  S
C589        C682   1.483       .  S
C590        C692   1.480   1_545  S
O591       Ni599   1.915       .  S
O592       Ni599   1.911       .  S
O593       Ni599   1.915       .  S
O594       Ni599   1.917       .  S
O595       Ni600   1.918       .  S
O595        C604   1.282       .  A
O596       Ni600   1.917       .  S
O596        C603   1.281       .  A
O597       Ni600   1.922       .  S
O597        C602   1.283       .  A
O598       Ni600   1.917       .  S
O598        C601   1.280       .  A
C601        C631   1.457   1_565  S
C602        C742   1.485       .  S
C603        C685   1.483       .  S
C604        C695   1.481       .  S
O605        C615   1.280       .  A
O606       Ni613   1.916   1_565  S
O606        C876   1.280   1_554  A
O608      Ni1653   1.918       .  S
O608        C618   1.280   1_554  A
O609      Ni1134   1.917       .  S
O610       Ni614   1.915       .  S
O610        C877   1.279   1_545  A
O611       Ni614   1.918   1_565  S
O611        C616   1.280       .  A
O612        C875   1.280       .  A
Ni613      O1648   1.918   1_455  S
Ni613      Ni874   2.395   1_554  S
Ni614      O1129   1.917   1_455  S
Ni614      Ni873   2.395       .  S
C615        O872   1.280   1_554  A
C615        C903   1.459       .  S
C616        O866   1.280       .  A
C617        O870   1.279   1_554  A
C618        C847   1.458       .  S
O619       Ni627   1.913   1_565  S
O619        C629   1.279       .  A
O620        C630   1.279       .  A
O621      Ni1667   1.919       .  S
O621        C631   1.281       .  A
O623       Ni628   1.914       .  S
O623        C632   1.279       .  A
O624      Ni1148   1.913       .  S
O625        C630   1.281       .  A
O626       Ni628   1.921   1_565  S
O626        C629   1.281       .  A
Ni627      O1661   1.919   1_455  S
Ni627      Ni628   2.395       .  S
Ni628      O1144   1.913   1_455  S
C630        C657   1.459       .  S
O633       Ni901   1.916       .  S
O633        C903   1.279       .  A
O634       Ni641   1.915       .  S
O634        C904   1.282       .  A
O635       Ni641   1.916       .  S
O635        C645   1.281       .  A
O636       Ni901   1.914       .  S
O636        C646   1.282       .  A
O637       Ni642   1.914       .  S
O637        C646   1.281       .  A
O638       Ni902   1.913       .  S
O638        C645   1.282       .  A
O639       Ni642   1.919       .  S
O639        C644   1.282       .  A
O640       Ni902   1.918       .  S
O640        C643   1.280       .  A
Ni641       O893   1.916       .  S
Ni641       O896   1.914       .  S
Ni641      Ni902   2.387       .  S
Ni642       O898   1.913   1_554  S
Ni642       O900   1.919       .  S
Ni642      Ni901   2.387       .  S
C643        O893   1.279       .  A
C643        C875   1.458       .  S
C644        O894   1.282       .  A
C644        C715   1.485       .  S
C645        C662   1.483       .  S
C646        C675   1.482       .  S
O647       Ni655   1.918       .  S
O647        C657   1.280       .  A
O648       Ni655   1.919       .  S
O648        C658   1.282       .  A
O649       Ni655   1.913       .  S
O649        C659   1.281       .  A
O650       Ni655   1.915       .  S
O650        C660   1.282       .  A
O651       Ni656   1.915       .  S
O651        C660   1.281       .  A
O652       Ni656   1.914       .  S
O652        C659   1.281       .  A
O653       Ni656   1.916       .  S
O653        C658   1.281       .  A
O654       Ni656   1.916       .  S
O654        C657   1.279       .  A
Ni655      Ni656   2.387       .  S
C658        C702   1.486       .  S
C659        C672   1.482       .  S
C660        C665   1.483       .  S
C661        C662   1.406       .  A
C661        C666   1.396       .  A
C661        H668   1.083       .  S
C662        C663   1.409       .  A
C663        C664   1.398       .  A
C663       F1710   1.357   1_455  S
C664        C665   1.406       .  A
C664       H1709   1.083   1_455  S
C665        C666   1.409       .  A
C666        F667   1.357       .  S
H669       C1704   1.083       .  S
F670       C1703   1.357       .  S
C671        C672   1.406       .  A
C671        C676   1.397       .  A
C671        H678   1.083       .  S
C672        C673   1.409       .  A
C673        C674   1.395       .  A
C673       F1720   1.357   1_455  S
C674        C675   1.405       .  A
C674       H1719   1.083   1_455  S
C675        C676   1.409       .  A
C676        F677   1.357       .  S
H679       C1714   1.083       .  S
F680       C1713   1.357       .  S
C681        C682   1.406       .  A
C681        C686   1.399       .  A
C681        H688   1.083       .  S
C683        C684   1.396       .  A
C683        F690   1.357       .  S
C684        H689   1.083       .  S
C685        C686   1.409       .  A
C686        F687   1.358       .  S
C691        C692   1.405       .  A
C691        C696   1.397       .  A
C691        H698   1.083       .  S
C693        C694   1.399       .  A
C693        F700   1.358       .  S
C694        H699   1.083       .  S
C695        C696   1.407       .  A
C696        F697   1.357       .  S
C701        C702   1.407       .  A
C701        C706   1.400       .  A
C701       H1748   1.083   1_455  S
C702        C703   1.409       .  A
C703        C704   1.396       .  A
C703        F710   1.357       .  S
C704        C705   1.406       .  A
C704        H709   1.083       .  S
C705        C706   1.409       .  A
C706       F1747   1.357   1_455  S
F707       C1746   1.357       .  S
H708       C1741   1.083       .  S
C711        C712   1.406       .  A
C711        C716   1.399       .  A
C711        H718   1.083       .  S
C712        C973   1.409       .  A
C713        C972   1.409       .  A
C713        C714   1.397       .  A
C713       F1760   1.357   1_455  S
C714        C715   1.406       .  A
C714       H1759   1.083   1_455  S
C715        C976   1.410   1_554  A
C716        C975   1.410       .  A
C716        F717   1.357       .  S
H719       C1754   1.083       .  S
F720       C1753   1.357       .  S
C721        C722   1.405       .  A
C721        C726   1.397       .  A
C721        H728   1.083       .  S
C722        C723   1.410       .  A
C723        C724   1.397       .  A
C723       F1770   1.357   1_455  S
C724        C725   1.405       .  A
C724       H1769   1.083   1_455  S
C725        C726   1.410       .  A
C726        F727   1.357       .  S
H729       C1764   1.083       .  S
F730       C1763   1.357       .  S
C731        C732   1.405       .  A
C731        C736   1.396       .  A
C731       H1778   1.083   1_455  S
C732        C733   1.410       .  A
C733        C734   1.396       .  A
C733        F740   1.357       .  S
C734        C735   1.405       .  A
C734        H739   1.083       .  S
C735        C736   1.410       .  A
C736       F1777   1.357   1_455  S
F737       C1776   1.357       .  S
H738       C1771   1.083       .  S
C741        C742   1.407       .  A
C741        C746   1.401       .  A
C741        H748   1.083       .  S
C743        C744   1.395       .  A
C743        F750   1.357       .  S
C744        H749   1.083       .  S
C745        C746   1.410       .  A
C746        F747   1.357       .  S
C751        C756   1.397       .  A
C751        H758   1.083       .  S
C752        C753   1.410       .  A
C753        C754   1.399       .  A
C753        F760   1.357       .  S
C754        H759   1.083       .  S
C755        C756   1.410       .  A
C756        F757   1.357       .  S
C761        C762   1.405       .  A
C761        C766   1.397       .  A
C761        H768   1.083       .  S
C763        C764   1.398       .  A
C763        F770   1.357       .  S
C764        H769   1.083       .  S
C765        C766   1.409       .  A
C766        F767   1.357       .  S
C771        C776   1.397       .  A
C771        H778   1.083       .  S
C772        C773   1.408       .  A
C773        C774   1.398       .  A
C773        F780   1.357       .  S
C774        C775   1.406       .  A
C774        H779   1.083       .  S
C776        F777   1.357       .  S
O782       Ni789   1.919       .  S
O783       Ni789   1.915       .  S
O783        C793   1.281       .  A
O784        C794   1.281       .  A
O786       Ni790   1.918       .  S
O787        C792   1.281       .  A
O788       Ni790   1.913       .  S
O788        C791   1.279       .  A
C792       C1015   1.485       .  S
C793       C1035   1.482       .  S
C794       C1025   1.482       .  S
O795       Ni803   1.917       .  S
O796       Ni803   1.916       .  S
O797       Ni803   1.915       .  S
O798       Ni803   1.914       .  S
O799       Ni804   1.917       .  S
O799        C808   1.282       .  A
O800       Ni804   1.918       .  S
O800        C807   1.282       .  A
O801       Ni804   1.919       .  S
O801        C806   1.281       .  A
O802       Ni804   1.917       .  S
O802        C805   1.280       .  A
C805        C892   1.458   1_565  S
C806       C1005   1.485       .  S
C807       C1032   1.482       .  S
C808       C1022   1.482       .  S
O810       Ni817   1.920       .  S
O810        C820   1.282       .  A
O811       Ni817   1.911   1_556  S
O811        C821   1.280       .  A
O812        C822   1.280       .  A
O813        C822   1.282       .  A
O814       Ni818   1.918   1_556  S
O814        C821   1.283       .  A
O816       Ni818   1.915   1_556  S
O816        C819   1.279       .  A
Ni817      Ni818   2.387       .  S
C819        C876   1.458       .  S
C820        C972   1.485       .  S
C821        C985   1.483       .  S
C822        C992   1.482       .  S
O823       Ni831   1.914       .  S
O823        C833   1.279       .  A
O824       Ni831   1.913       .  S
O824        C834   1.281       .  A
O825       Ni831   1.917       .  S
O825        C835   1.282       .  A
O826       Ni831   1.918       .  S
O826        C836   1.283       .  A
O827       Ni832   1.912       .  S
O827        C836   1.280       .  A
O828       Ni832   1.911       .  S
O828        C835   1.280       .  A
O829       Ni832   1.921       .  S
O829        C834   1.282       .  A
O830       Ni832   1.920       .  S
O830        C833   1.281       .  A
Ni831      Ni832   2.387       .  S
C833        C889   1.458       .  S
C834        C965   1.485       .  S
C835        C995   1.482       .  S
C836        C982   1.483       .  S
O838       Ni845   1.919       .  S
O839       Ni845   1.916       .  S
O839        C849   1.282       .  A
O840        C850   1.282   1_565  A
O842       Ni846   1.916       .  S
O844       Ni846   1.919       .  S
C848       C1012   1.485       .  S
C849        C942   1.483       .  S
C850        C952   1.480   1_545  S
O851       Ni859   1.915       .  S
O852       Ni859   1.911       .  S
O853       Ni859   1.915       .  S
O854       Ni859   1.917       .  S
O855       Ni860   1.918       .  S
O855        C864   1.282       .  A
O856       Ni860   1.917       .  S
O856        C863   1.281       .  A
O857       Ni860   1.922       .  S
O857        C862   1.283       .  A
O858       Ni860   1.917       .  S
O858        C861   1.280       .  A
C861        C891   1.457   1_565  S
C862       C1002   1.485       .  S
C863        C945   1.483       .  S
C864        C955   1.481       .  S
O865        C875   1.280       .  A
O866       Ni873   1.916   1_565  S
O868      Ni1913   1.918       .  S
O868        C878   1.280       .  A
O869      Ni1394   1.917       .  S
O870       Ni874   1.915       .  S
O871       Ni874   1.918   1_565  S
O871        C876   1.280       .  A
Ni873      O1908   1.918   1_455  S
Ni874      O1389   1.917   1_455  S
O879       Ni887   1.913   1_565  S
O879        C889   1.279       .  A
O880        C890   1.279       .  A
O881      Ni1927   1.919       .  S
O881        C891   1.281       .  A
O883       Ni888   1.914       .  S
O883        C892   1.279       .  A
O884      Ni1408   1.913       .  S
O885        C890   1.281       .  A
O886       Ni888   1.921   1_565  S
O886        C889   1.281       .  A
Ni887      O1921   1.919   1_455  S
Ni887      Ni888   2.395       .  S
Ni888      O1404   1.913   1_455  S
C890        C917   1.459       .  S
O894       Ni901   1.915       .  S
O895       Ni901   1.916   1_556  S
O895        C905   1.281       .  A
O896        C906   1.282       .  A
O897       Ni902   1.914       .  S
O897        C906   1.281       .  A
O898        C905   1.282       .  A
O899       Ni902   1.919       .  S
O899        C904   1.282       .  A
O900        C903   1.280       .  A
C904        C975   1.485       .  S
C905        C922   1.483       .  S
C906        C935   1.482       .  S
O907       Ni915   1.918       .  S
O907        C917   1.280       .  A
O908       Ni915   1.919       .  S
O908        C918   1.282       .  A
O909       Ni915   1.913       .  S
O909        C919   1.281       .  A
O910       Ni915   1.915       .  S
O910        C920   1.282       .  A
O911       Ni916   1.915       .  S
O911        C920   1.281       .  A
O912       Ni916   1.914       .  S
O912        C919   1.281       .  A
O913       Ni916   1.916       .  S
O913        C918   1.281       .  A
O914       Ni916   1.916       .  S
O914        C917   1.279       .  A
Ni915      Ni916   2.387       .  S
C918        C962   1.486       .  S
C919        C932   1.482       .  S
C920        C925   1.483       .  S
C921        C922   1.406       .  A
C921        C926   1.396       .  A
C921        H928   1.083       .  S
C922        C923   1.409       .  A
C923        C924   1.398       .  A
C923       F1970   1.357   1_455  S
C924        C925   1.406       .  A
C924       H1969   1.083   1_455  S
C925        C926   1.409       .  A
C926        F927   1.357       .  S
H929       C1964   1.083       .  S
F930       C1963   1.357       .  S
C931        C932   1.406       .  A
C931        C936   1.397       .  A
C931        H938   1.083       .  S
C932        C933   1.409       .  A
C933        C934   1.395       .  A
C933       F1980   1.357   1_455  S
C934        C935   1.405       .  A
C934       H1979   1.083   1_455  S
C935        C936   1.409       .  A
C936        F937   1.357       .  S
H939       C1974   1.083       .  S
F940       C1973   1.357       .  S
C941        C942   1.406       .  A
C941        C946   1.399       .  A
C941        H948   1.083       .  S
C943        C944   1.396       .  A
C943        F950   1.357       .  S
C944        H949   1.083       .  S
C945        C946   1.409       .  A
C946        F947   1.358       .  S
C951        C952   1.405       .  A
C951        C956   1.397       .  A
C951        H958   1.083       .  S
C953        C954   1.399       .  A
C953        F960   1.358       .  S
C954        H959   1.083       .  S
C955        C956   1.407       .  A
C956        F957   1.357       .  S
C961        C962   1.407       .  A
C961        C966   1.400       .  A
C961       H2008   1.083   1_455  S
C962        C963   1.409       .  A
C963        C964   1.396       .  A
C963        F970   1.357       .  S
C964        C965   1.406       .  A
C964        H969   1.083       .  S
C965        C966   1.409       .  A
C966       F2007   1.357   1_455  S
F967       C2006   1.357       .  S
H968       C2001   1.083       .  S
C971        C972   1.406   1_556  A
C971        C976   1.399       .  A
C971        H978   1.083       .  S
C973        C974   1.397       .  A
C973       F2020   1.357   1_455  S
C974        C975   1.406       .  A
C974       H2019   1.083   1_455  S
C976        F977   1.357       .  S
H979       C2014   1.083       .  S
F980       C2013   1.357       .  S
C981        C982   1.405       .  A
C981        C986   1.397       .  A
C981        H988   1.083       .  S
C982        C983   1.410       .  A
C983        C984   1.397       .  A
C983       F2030   1.357   1_455  S
C984        C985   1.405       .  A
C984       H2029   1.083   1_455  S
C985        C986   1.410       .  A
C986        F987   1.357       .  S
H989       C2024   1.083       .  S
F990       C2023   1.357       .  S
C991        C992   1.405       .  A
C991        C996   1.396       .  A
C991       H2038   1.083   1_455  S
C992        C993   1.410       .  A
C993        C994   1.396       .  A
C993       F1000   1.357       .  S
C994        C995   1.405       .  A
C994        H999   1.083       .  S
C995        C996   1.410       .  A
C996       F2037   1.357   1_455  S
F997       C2036   1.357       .  S
H998       C2031   1.083       .  S
C1001      C1002   1.407       .  A
C1001      C1006   1.401       .  A
C1001      H1008   1.083       .  S
C1003      C1004   1.395       .  A
C1003      F1010   1.357       .  S
C1004      H1009   1.083       .  S
C1005      C1006   1.410       .  A
C1006      F1007   1.357       .  S
C1011      C1016   1.396       .  A
C1011      H1018   1.083       .  S
C1012      C1013   1.410       .  A
C1013      C1014   1.399       .  A
C1013      F1020   1.357       .  S
C1014      H1019   1.083       .  S
C1015      C1016   1.410       .  A
C1016      F1017   1.357       .  S
C1021      C1022   1.405       .  A
C1021      C1026   1.397       .  A
C1021      H1028   1.083       .  S
C1023      C1024   1.397       .  A
C1023      F1030   1.357       .  S
C1024      H1029   1.083       .  S
C1025      C1026   1.409       .  A
C1026      F1027   1.357       .  S
C1031      C1036   1.397       .  A
C1031      H1038   1.083       .  S
C1032      C1033   1.408       .  A
C1033      C1034   1.398       .  A
C1033      F1040   1.357       .  S
C1034      C1035   1.406       .  A
C1034      H1039   1.083       .  S
C1036      F1037   1.357       .  S
O1041     Ni1309   1.919       .  S
O1041      C1831   1.280       .  A
O1042     Ni1049   1.920       .  S
O1042      C1832   1.282       .  A
O1043     Ni1049   1.915   1_554  S
O1043      C1053   1.281       .  A
O1044     Ni1309   1.914       .  S
O1044      C1054   1.281       .  A
O1045     Ni1310   1.917       .  S
O1045      C1574   1.282   1_545  A
O1046     Ni1050   1.918   1_554  S
O1046      C1573   1.282   1_545  A
O1047     Ni1310   1.913       .  S
O1047      C1052   1.281   1_545  A
O1048     Ni1050   1.913   1_554  S
O1048      C1051   1.279   1_545  A
Ni1049     O1301   1.919   1_556  S
Ni1049     O1304   1.914       .  S
Ni1049    Ni1570   2.387       .  S
Ni1050     O1305   1.917       .  S
Ni1050     O1307   1.913       .  S
Ni1050    Ni1569   2.387   1_545  S
C1051      O1821   1.280       .  A
C1051      C1657   1.457   1_565  S
C1052      O1822   1.282       .  A
C1052      C1275   1.485       .  S
C1053      O1566   1.282       .  A
C1053      C1295   1.483       .  S
C1054      O1565   1.282       .  A
C1054      C1285   1.482       .  S
O1055     Ni1063   1.917       .  S
O1055      C1585   1.279   1_545  A
O1056     Ni1063   1.916       .  S
O1056      C1586   1.282   1_545  A
O1057     Ni1063   1.915       .  S
O1057      C1587   1.281   1_545  A
O1058     Ni1063   1.914       .  S
O1058      C1588   1.281   1_545  A
O1059     Ni1064   1.917       .  S
O1059      C1068   1.282       .  A
O1060     Ni1064   1.918       .  S
O1060      C1067   1.282       .  A
O1061     Ni1064   1.919       .  S
O1061      C1066   1.281       .  A
O1062     Ni1064   1.917       .  S
O1062      C1065   1.280       .  A
Ni1063    Ni1584   2.387   1_545  S
Ni1064    Ni1583   2.387       .  S
C1065      O1575   1.279       .  A
C1065      C1152   1.458       .  S
C1066      O1576   1.282       .  A
C1066      C1265   1.485       .  S
C1067      O1577   1.281       .  A
C1067      C1292   1.482       .  S
C1068      O1578   1.281       .  A
C1068      C1282   1.482       .  S
O1069     Ni1337   1.919   1_556  S
O1069      C1339   1.280       .  A
O1070     Ni1077   1.920       .  S
O1070      C1080   1.282       .  A
O1071     Ni1077   1.911       .  S
O1071      C1081   1.280       .  A
O1072     Ni1337   1.911       .  S
O1072      C1082   1.280       .  A
O1073     Ni1338   1.917       .  S
O1073      C1082   1.282       .  A
O1074     Ni1078   1.918       .  S
O1074      C1081   1.283       .  A
O1075     Ni1338   1.914       .  S
O1075      C1340   1.281       .  A
O1076     Ni1078   1.915       .  S
O1076      C1079   1.279       .  A
Ni1077     O1329   1.919       .  S
Ni1077     O1332   1.911       .  S
Ni1077    Ni1078   2.387       .  S
Ni1078     O1333   1.917       .  S
Ni1078     O1335   1.914       .  S
C1079      O1329   1.280       .  A
C1079      C1136   1.458       .  S
C1080      O1335   1.281       .  A
C1080      C1232   1.485       .  S
C1081      C1245   1.483       .  S
C1082      C1252   1.482       .  S
O1083     Ni1091   1.914       .  S
O1083      C1093   1.279       .  A
O1084     Ni1091   1.913       .  S
O1084      C1094   1.281       .  A
O1085     Ni1091   1.917       .  S
O1085      C1095   1.282       .  A
O1086     Ni1091   1.918       .  S
O1086      C1096   1.283       .  A
O1087     Ni1092   1.912       .  S
O1087      C1096   1.280       .  A
O1088     Ni1092   1.911       .  S
O1088      C1095   1.280       .  A
O1089     Ni1092   1.921       .  S
O1089      C1094   1.282       .  A
O1090     Ni1092   1.920       .  S
O1090      C1093   1.281       .  A
Ni1091    Ni1092   2.387       .  S
C1093      C1149   1.458       .  S
C1094      C1225   1.485       .  S
C1095      C1255   1.482       .  S
C1096      C1242   1.483       .  S
O1097     Ni1365   1.915       .  S
O1097      C1367   1.279       .  A
O1098     Ni1105   1.918       .  S
O1098      C1368   1.281       .  A
O1099     Ni1105   1.916       .  S
O1099      C1109   1.282       .  A
O1100     Ni1365   1.916   1_554  S
O1100      C1110   1.282       .  A
O1101     Ni1366   1.918   1_554  S
O1101      C1630   1.281       .  A
O1102     Ni1106   1.916       .  S
O1102      C1629   1.282   1_545  A
O1103     Ni1366   1.916       .  S
O1103      C1628   1.282   1_545  A
O1104     Ni1106   1.919       .  S
O1104      C1627   1.280       .  A
Ni1105     O1357   1.915       .  S
Ni1105     O1360   1.916       .  S
Ni1105    Ni1626   2.387       .  S
Ni1106     O1361   1.918       .  S
Ni1106     O1363   1.916       .  S
Ni1106    Ni1625   2.387   1_545  S
C1107      O1357   1.279       .  A
C1107      O1624   1.280       .  A
C1107      C1398   1.458       .  S
C1108      O1358   1.282       .  A
C1108      O1623   1.282       .  A
C1108      C1272   1.485       .  S
C1109      O1622   1.282       .  A
C1109      C1202   1.483       .  S
C1110      O1621   1.281       .  A
C1110      C1212   1.480       .  S
O1111     Ni1119   1.915       .  S
O1111      C1641   1.279   1_545  A
O1112     Ni1119   1.911       .  S
O1112      C1642   1.281   1_545  A
O1113     Ni1119   1.915       .  S
O1113      C1643   1.282   1_545  A
O1114     Ni1119   1.917       .  S
O1114      C1644   1.281   1_545  A
O1115     Ni1120   1.918       .  S
O1115      C1124   1.282       .  A
O1116     Ni1120   1.917       .  S
O1116      C1123   1.281       .  A
O1117     Ni1120   1.922       .  S
O1117      C1122   1.283       .  A
O1118     Ni1120   1.917       .  S
O1118      C1121   1.280       .  A
Ni1119    Ni1640   2.387   1_545  S
Ni1120    Ni1639   2.387       .  S
C1121      O1631   1.279       .  A
C1121      C1151   1.457       .  S
C1122      O1632   1.281       .  A
C1122      C1262   1.485       .  S
C1123      O1633   1.282       .  A
C1123      C1205   1.483       .  S
C1124      O1634   1.281       .  A
C1124      C1215   1.481       .  S
O1125     Ni1653   1.917       .  S
O1125      C1135   1.280       .  A
O1126     Ni1133   1.916       .  S
O1126      C1396   1.280   1_554  A
O1127     Ni1653   1.918       .  S
O1127      C1657   1.280       .  A
O1128      C1138   1.280   1_554  A
O1129      C1918   1.280       .  A
O1130     Ni1134   1.915       .  S
O1130      C1397   1.279       .  A
O1131     Ni1134   1.918       .  S
O1131      C1136   1.280       .  A
O1132     Ni1654   1.918       .  S
O1132      C1395   1.280       .  A
Ni1133     O1645   1.917       .  S
Ni1133     O1647   1.918       .  S
Ni1133    Ni1394   2.395   1_554  S
Ni1134     O1652   1.918       .  S
Ni1134    Ni1393   2.395       .  S
C1135      O1392   1.280   1_554  A
C1135      C1423   1.458       .  S
C1136      O1386   1.280       .  A
C1137      O1647   1.280       .  A
C1137      O1390   1.279   1_554  A
C1137      C1571   1.457       .  S
C1138      O1909   1.280       .  A
C1138      C1367   1.458       .  S
O1139     Ni1147   1.913       .  S
O1139      C1149   1.279       .  A
O1140     Ni1667   1.914       .  S
O1140      C1150   1.279       .  A
O1141      C1151   1.281       .  A
O1142     Ni1667   1.920       .  S
O1142      C1672   1.281       .  A
O1143     Ni1148   1.914       .  S
O1143      C1152   1.279       .  A
O1144      C1671   1.279       .  A
O1145     Ni1668   1.922       .  S
O1145      C1150   1.281       .  A
O1146     Ni1148   1.921       .  S
O1146      C1149   1.281       .  A
Ni1147     O1660   1.914       .  S
Ni1147     O1662   1.921       .  S
Ni1147    Ni1148   2.395       .  S
Ni1148     O1665   1.922       .  S
C1150      C1177   1.459       .  S
C1151      O1664   1.279       .  A
C1152      O1662   1.281       .  A
O1153     Ni1421   1.916       .  S
O1153      C1423   1.279       .  A
O1154     Ni1161   1.915       .  S
O1154      C1424   1.282       .  A
O1155     Ni1161   1.916       .  S
O1155      C1165   1.281       .  A
O1156     Ni1421   1.914       .  S
O1156      C1166   1.282       .  A
O1157     Ni1162   1.914       .  S
O1157      C1166   1.281       .  A
O1158     Ni1422   1.913       .  S
O1158      C1165   1.282       .  A
O1159     Ni1162   1.919       .  S
O1159      C1164   1.282       .  A
O1160     Ni1422   1.919       .  S
O1160      C1163   1.280       .  A
Ni1161     O1413   1.916       .  S
Ni1161     O1416   1.914       .  S
Ni1161    Ni1422   2.387       .  S
Ni1162     O1418   1.913   1_554  S
Ni1162     O1420   1.919       .  S
Ni1162    Ni1421   2.387       .  S
C1163      O1413   1.279       .  A
C1163      C1395   1.458       .  S
C1164      O1414   1.282       .  A
C1164      C1235   1.485       .  S
C1165      C1182   1.483       .  S
C1166      C1195   1.482       .  S
O1167     Ni1175   1.918       .  S
O1167      C1177   1.280       .  A
O1168     Ni1175   1.919       .  S
O1168      C1178   1.282       .  A
O1169     Ni1175   1.913       .  S
O1169      C1179   1.281       .  A
O1170     Ni1175   1.915       .  S
O1170      C1180   1.282       .  A
O1171     Ni1176   1.915       .  S
O1171      C1180   1.281       .  A
O1172     Ni1176   1.914       .  S
O1172      C1179   1.281       .  A
O1173     Ni1176   1.916       .  S
O1173      C1178   1.281       .  A
O1174     Ni1176   1.916       .  S
O1174      C1177   1.279       .  A
Ni1175    Ni1176   2.387       .  S
C1178      C1222   1.486       .  S
C1179      C1192   1.482       .  S
C1180      C1185   1.483       .  S
C1181      C1182   1.406       .  A
C1181      C1186   1.396       .  A
C1181      H1188   1.083       .  S
C1182      C1183   1.409       .  A
C1183      C1184   1.398       .  A
C1184      C1185   1.406       .  A
C1185      C1186   1.409       .  A
C1186      F1187   1.357       .  S
C1191      C1192   1.406       .  A
C1191      C1196   1.397       .  A
C1191      H1198   1.083       .  S
C1192      C1193   1.409       .  A
C1193      C1194   1.395       .  A
C1194      C1195   1.405       .  A
C1195      C1196   1.409       .  A
C1196      F1197   1.357       .  S
C1201      C1202   1.406       .  A
C1201      C1206   1.399       .  A
C1201      H1208   1.083       .  S
C1202      C1723   1.408       .  A
C1203      C1722   1.408   1_545  A
C1203      C1204   1.396       .  A
C1203      F1210   1.357       .  S
C1204      C1725   1.405   1_545  A
C1204      H1209   1.083       .  S
C1205      C1724   1.405       .  A
C1205      C1206   1.409       .  A
C1206      F1207   1.358       .  S
C1211      C1212   1.405       .  A
C1211      C1216   1.397       .  A
C1211      H1218   1.083       .  S
C1212      C1733   1.408       .  A
C1213      C1732   1.408   1_545  A
C1213      C1214   1.399       .  A
C1213      F1220   1.358       .  S
C1214      C1735   1.406   1_545  A
C1214      H1219   1.083       .  S
C1215      C1734   1.406       .  A
C1215      C1216   1.407       .  A
C1216      F1217   1.357       .  S
C1221      C1222   1.407       .  A
C1221      C1226   1.400       .  A
C1222      C1223   1.409       .  A
C1223      C1224   1.396       .  A
C1223      F1230   1.357       .  S
C1224      C1225   1.406       .  A
C1224      H1229   1.083       .  S
C1225      C1226   1.409       .  A
C1231      C1232   1.406       .  A
C1231      C1236   1.399       .  A
C1231      H1238   1.083       .  S
C1232      C1493   1.409       .  A
C1233      C1492   1.409       .  A
C1233      C1234   1.397       .  A
C1234      C1235   1.406       .  A
C1235      C1496   1.410   1_554  A
C1236      C1495   1.410       .  A
C1236      F1237   1.357       .  S
C1241      C1242   1.405       .  A
C1241      C1246   1.397       .  A
C1241      H1248   1.083       .  S
C1242      C1243   1.410       .  A
C1243      C1244   1.397       .  A
C1244      C1245   1.405       .  A
C1245      C1246   1.410       .  A
C1246      F1247   1.357       .  S
C1251      C1252   1.405       .  A
C1251      C1256   1.396       .  A
C1252      C1253   1.410       .  A
C1253      C1254   1.396       .  A
C1253      F1260   1.357       .  S
C1254      C1255   1.405       .  A
C1254      H1259   1.083       .  S
C1255      C1256   1.410       .  A
C1261      C1262   1.407       .  A
C1261      C1266   1.401       .  A
C1261      H1268   1.083       .  S
C1262      C1783   1.409       .  A
C1263      C1782   1.409   1_545  A
C1263      C1264   1.395       .  A
C1263      F1270   1.357       .  S
C1264      C1785   1.405   1_545  A
C1264      H1269   1.083       .  S
C1265      C1784   1.405       .  A
C1265      C1266   1.410       .  A
C1266      F1267   1.357       .  S
C1271      C2052   1.405   1_545  A
C1271      C1276   1.397       .  A
C1271      H1278   1.083       .  S
C1272      C2051   1.405       .  A
C1272      C1273   1.410       .  A
C1273      C1274   1.399       .  A
C1273      F1280   1.357       .  S
C1274      C2055   1.406       .  A
C1274      H1279   1.083       .  S
C1275      C2054   1.406       .  A
C1275      C1276   1.410   1_565  A
C1276      F1277   1.357       .  S
C1281      C1282   1.405       .  A
C1281      C1286   1.397       .  A
C1281      H1288   1.083       .  S
C1282      C1803   1.409       .  A
C1283      C1802   1.409   1_545  A
C1283      C1284   1.397       .  A
C1283      F1290   1.357       .  S
C1284      C1805   1.405   1_545  A
C1284      H1289   1.083       .  S
C1285      C1804   1.405       .  A
C1285      C1286   1.409       .  A
C1286      F1287   1.357       .  S
C1291      C1812   1.406   1_545  A
C1291      C1296   1.397       .  A
C1291      H1298   1.083       .  S
C1292      C1811   1.406       .  A
C1292      C1293   1.408       .  A
C1293      C1294   1.398       .  A
C1293      F1300   1.357       .  S
C1294      C1295   1.406       .  A
C1294      H1299   1.083       .  S
C1295      C1816   1.408       .  A
C1296      C1815   1.408   1_545  A
C1296      F1297   1.357       .  S
O1301      C1571   1.280       .  A
O1302     Ni1309   1.919       .  S
O1302      C1572   1.282       .  A
O1303     Ni1309   1.915       .  S
O1303      C1313   1.281       .  A
O1304      C1314   1.281       .  A
O1305      C1834   1.282   1_545  A
O1306     Ni1310   1.918       .  S
O1306      C1833   1.282   1_545  A
O1307      C1312   1.281   1_545  A
O1308     Ni1310   1.913       .  S
O1308      C1311   1.279   1_545  A
Ni1309    Ni1830   2.387       .  S
Ni1310    Ni1829   2.387   1_545  S
C1311      O1561   1.280       .  A
C1311      C1917   1.457       .  S
C1312      O1562   1.282       .  A
C1312      C1535   1.485       .  S
C1313      O1826   1.282       .  A
C1313      C1555   1.482       .  S
C1314      O1825   1.282       .  A
C1314      C1545   1.482       .  S
O1315     Ni1323   1.917       .  S
O1315      C1845   1.279   1_545  A
O1316     Ni1323   1.916       .  S
O1316      C1846   1.282   1_545  A
O1317     Ni1323   1.914       .  S
O1317      C1847   1.281   1_545  A
O1318     Ni1323   1.914       .  S
O1318      C1848   1.281   1_545  A
O1319     Ni1324   1.917       .  S
O1319      C1328   1.282       .  A
O1320     Ni1324   1.918       .  S
O1320      C1327   1.282       .  A
O1321     Ni1324   1.919       .  S
O1321      C1326   1.281       .  A
O1322     Ni1324   1.917       .  S
O1322      C1325   1.280       .  A
Ni1323    Ni1844   2.387   1_545  S
Ni1324    Ni1843   2.387       .  S
C1325      O1835   1.280       .  A
C1325      C1412   1.458       .  S
C1326      O1836   1.282       .  A
C1326      C1525   1.485       .  S
C1327      O1837   1.281       .  A
C1327      C1552   1.482       .  S
C1328      O1838   1.281       .  A
C1328      C1542   1.482       .  S
O1330     Ni1337   1.920       .  S
O1330      C1340   1.282       .  A
O1331     Ni1337   1.911   1_556  S
O1331      C1341   1.280       .  A
O1332      C1342   1.280       .  A
O1333      C1342   1.282       .  A
O1334     Ni1338   1.918   1_556  S
O1334      C1341   1.283       .  A
O1336     Ni1338   1.915   1_556  S
O1336      C1339   1.279       .  A
Ni1337    Ni1338   2.387       .  S
C1339      C1396   1.458       .  S
C1340      C1492   1.485       .  S
C1341      C1505   1.483       .  S
C1342      C1512   1.482       .  S
O1343     Ni1351   1.914       .  S
O1343      C1353   1.279       .  A
O1344     Ni1351   1.913       .  S
O1344      C1354   1.281       .  A
O1345     Ni1351   1.917       .  S
O1345      C1355   1.282       .  A
O1346     Ni1351   1.918       .  S
O1346      C1356   1.283       .  A
O1347     Ni1352   1.912       .  S
O1347      C1356   1.280       .  A
O1348     Ni1352   1.911       .  S
O1348      C1355   1.280       .  A
O1349     Ni1352   1.921       .  S
O1349      C1354   1.282       .  A
O1350     Ni1352   1.920       .  S
O1350      C1353   1.281       .  A
Ni1351    Ni1352   2.387       .  S
C1353      C1409   1.458       .  S
C1354      C1485   1.485       .  S
C1355      C1515   1.482       .  S
C1356      C1502   1.483       .  S
O1358     Ni1365   1.919       .  S
O1359     Ni1365   1.916       .  S
O1359      C1369   1.282       .  A
O1360      C1370   1.282       .  A
O1361      C1890   1.281       .  A
O1362     Ni1366   1.916       .  S
O1362      C1889   1.282   1_545  A
O1363      C1888   1.282   1_545  A
O1364     Ni1366   1.919       .  S
O1364      C1887   1.280       .  A
Ni1365    Ni1886   2.387       .  S
Ni1366    Ni1885   2.387   1_545  S
C1367      O1884   1.280       .  A
C1368      O1883   1.282       .  A
C1368      C1532   1.485       .  S
C1369      O1882   1.282       .  A
C1369      C1462   1.483       .  S
C1370      O1881   1.281       .  A
C1370      C1472   1.480       .  S
O1371     Ni1379   1.915       .  S
O1371      C1901   1.279   1_545  A
O1372     Ni1379   1.911       .  S
O1372      C1902   1.281   1_545  A
O1373     Ni1379   1.915       .  S
O1373      C1903   1.282   1_545  A
O1374     Ni1379   1.917       .  S
O1374      C1904   1.281   1_545  A
O1375     Ni1380   1.918       .  S
O1375      C1384   1.282       .  A
O1376     Ni1380   1.917       .  S
O1376      C1383   1.281       .  A
O1377     Ni1380   1.922       .  S
O1377      C1382   1.283       .  A
O1378     Ni1380   1.917       .  S
O1378      C1381   1.280       .  A
Ni1379    Ni1900   2.387   1_545  S
Ni1380    Ni1899   2.387       .  S
C1381      O1891   1.279       .  A
C1381      C1411   1.457       .  S
C1382      O1892   1.281       .  A
C1382      C1522   1.485       .  S
C1383      O1893   1.282       .  A
C1383      C1465   1.483       .  S
C1384      O1894   1.281       .  A
C1384      C1475   1.481       .  S
O1385     Ni1913   1.917       .  S
O1385      C1395   1.280       .  A
O1386     Ni1393   1.916       .  S
O1387     Ni1913   1.918       .  S
O1387      C1917   1.280   1_545  A
O1388      C1398   1.280       .  A
O1389      C1658   1.280       .  A
O1390     Ni1394   1.915       .  S
O1391     Ni1394   1.918       .  S
O1391      C1396   1.280       .  A
O1392     Ni1914   1.918       .  S
Ni1393     O1905   1.917       .  S
Ni1393     O1907   1.918       .  S
Ni1394     O1912   1.918       .  S
C1397      O1907   1.280       .  A
C1397      C1831   1.457       .  S
C1398      O1649   1.280       .  A
O1399     Ni1407   1.913       .  S
O1399      C1409   1.279       .  A
O1400     Ni1927   1.914       .  S
O1400      C1410   1.279       .  A
O1401      C1411   1.281       .  A
O1402     Ni1927   1.921       .  S
O1402      C1932   1.281       .  A
O1403     Ni1408   1.914       .  S
O1403      C1412   1.279       .  A
O1404      C1931   1.279       .  A
O1405     Ni1928   1.922       .  S
O1405      C1410   1.281       .  A
O1406     Ni1408   1.921       .  S
O1406      C1409   1.281       .  A
Ni1407     O1920   1.914       .  S
Ni1407     O1922   1.920       .  S
Ni1407    Ni1408   2.395       .  S
Ni1408     O1925   1.922       .  S
C1410      C1437   1.459       .  S
C1411      O1924   1.279       .  A
C1412      O1922   1.281       .  A
O1414     Ni1421   1.915       .  S
O1415     Ni1421   1.916   1_556  S
O1415      C1425   1.281       .  A
O1416      C1426   1.282       .  A
O1417     Ni1422   1.914       .  S
O1417      C1426   1.281       .  A
O1418      C1425   1.282       .  A
O1419     Ni1422   1.919       .  S
O1419      C1424   1.282       .  A
O1420      C1423   1.280       .  A
C1424      C1495   1.485       .  S
C1425      C1442   1.483       .  S
C1426      C1455   1.482       .  S
O1427     Ni1435   1.918       .  S
O1427      C1437   1.280       .  A
O1428     Ni1435   1.919       .  S
O1428      C1438   1.282       .  A
O1429     Ni1435   1.913       .  S
O1429      C1439   1.281       .  A
O1430     Ni1435   1.915       .  S
O1430      C1440   1.282       .  A
O1431     Ni1436   1.915       .  S
O1431      C1440   1.281       .  A
O1432     Ni1436   1.914       .  S
O1432      C1439   1.281       .  A
O1433     Ni1436   1.916       .  S
O1433      C1438   1.281       .  A
O1434     Ni1436   1.916       .  S
O1434      C1437   1.279       .  A
Ni1435    Ni1436   2.387       .  S
C1438      C1482   1.486       .  S
C1439      C1452   1.482       .  S
C1440      C1445   1.483       .  S
C1441      C1442   1.406       .  A
C1441      C1446   1.396       .  A
C1441      H1448   1.083       .  S
C1442      C1443   1.409       .  A
C1443      C1444   1.398       .  A
C1444      C1445   1.406       .  A
C1445      C1446   1.409       .  A
C1446      F1447   1.357       .  S
C1451      C1452   1.406       .  A
C1451      C1456   1.397       .  A
C1451      H1458   1.083       .  S
C1452      C1453   1.409       .  A
C1453      C1454   1.395       .  A
C1454      C1455   1.405       .  A
C1455      C1456   1.409       .  A
C1456      F1457   1.357       .  S
C1461      C1462   1.406       .  A
C1461      C1466   1.399       .  A
C1461      H1468   1.083       .  S
C1462      C1983   1.408       .  A
C1463      C1982   1.408   1_545  A
C1463      C1464   1.396       .  A
C1463      F1470   1.357       .  S
C1464      C1985   1.405   1_545  A
C1464      H1469   1.083       .  S
C1465      C1984   1.405       .  A
C1465      C1466   1.409       .  A
C1466      F1467   1.358       .  S
C1471      C1472   1.405       .  A
C1471      C1476   1.397       .  A
C1471      H1478   1.083       .  S
C1472      C1993   1.408       .  A
C1473      C1992   1.408   1_545  A
C1473      C1474   1.399       .  A
C1473      F1480   1.358       .  S
C1474      C1995   1.406   1_545  A
C1474      H1479   1.083       .  S
C1475      C1994   1.406       .  A
C1475      C1476   1.407       .  A
C1476      F1477   1.357       .  S
C1481      C1482   1.407       .  A
C1481      C1486   1.400       .  A
C1482      C1483   1.409       .  A
C1483      C1484   1.396       .  A
C1483      F1490   1.357       .  S
C1484      C1485   1.406       .  A
C1484      H1489   1.083       .  S
C1485      C1486   1.409       .  A
C1491      C1492   1.406   1_556  A
C1491      C1496   1.400       .  A
C1491      H1498   1.083       .  S
C1493      C1494   1.397       .  A
C1494      C1495   1.406       .  A
C1496      F1497   1.357       .  S
C1501      C1502   1.405       .  A
C1501      C1506   1.397       .  A
C1501      H1508   1.083       .  S
C1502      C1503   1.410       .  A
C1503      C1504   1.397       .  A
C1504      C1505   1.405       .  A
C1505      C1506   1.410       .  A
C1506      F1507   1.357       .  S
C1511      C1512   1.405       .  A
C1511      C1516   1.396       .  A
C1512      C1513   1.410       .  A
C1513      C1514   1.396       .  A
C1513      F1520   1.357       .  S
C1514      C1515   1.405       .  A
C1514      H1519   1.083       .  S
C1515      C1516   1.410       .  A
C1521      C1522   1.407       .  A
C1521      C1526   1.401       .  A
C1521      H1528   1.083       .  S
C1522      C2043   1.409       .  A
C1523      C2042   1.409   1_545  A
C1523      C1524   1.395       .  A
C1523      F1530   1.357       .  S
C1524      C2045   1.405   1_545  A
C1524      H1529   1.083       .  S
C1525      C2044   1.405       .  A
C1525      C1526   1.410       .  A
C1526      F1527   1.357       .  S
C1531      C1792   1.405   1_545  A
C1531      C1536   1.396       .  A
C1531      H1538   1.083       .  S
C1532      C1791   1.406       .  A
C1532      C1533   1.410       .  A
C1533      C1534   1.399       .  A
C1533      F1540   1.357       .  S
C1534      C1795   1.406       .  A
C1534      H1539   1.083       .  S
C1535      C1794   1.406       .  A
C1535      C1536   1.410   1_565  A
C1536      F1537   1.357       .  S
C1541      C1542   1.405       .  A
C1541      C1546   1.397       .  A
C1541      H1548   1.083       .  S
C1542      C2063   1.409       .  A
C1543      C2062   1.409   1_545  A
C1543      C1544   1.397       .  A
C1543      F1550   1.357       .  S
C1544      C2065   1.405   1_545  A
C1544      H1549   1.083       .  S
C1545      C2064   1.405       .  A
C1545      C1546   1.409       .  A
C1546      F1547   1.357       .  S
C1551      C2072   1.406   1_545  A
C1551      C1556   1.397       .  A
C1551      H1558   1.083       .  S
C1552      C2071   1.406       .  A
C1552      C1553   1.408       .  A
C1553      C1554   1.398       .  A
C1553      F1560   1.357       .  S
C1554      C1555   1.406       .  A
C1554      H1559   1.083       .  S
C1555      C2076   1.408       .  A
C1556      C2075   1.408   1_545  A
C1556      F1557   1.357       .  S
O1561     Ni1829   1.919       .  S
O1562     Ni1569   1.920       .  S
O1563     Ni1569   1.915   1_554  S
O1563      C1573   1.281       .  A
O1564     Ni1829   1.914       .  S
O1564      C1574   1.281       .  A
O1565     Ni1830   1.917       .  S
O1566     Ni1570   1.918   1_554  S
O1567     Ni1830   1.913       .  S
O1567      C1572   1.281       .  A
O1568     Ni1570   1.913   1_554  S
O1568      C1571   1.279       .  A
Ni1569     O1821   1.919   1_556  S
Ni1569     O1824   1.914       .  S
Ni1570     O1825   1.917       .  S
Ni1570     O1827   1.913       .  S
C1572      C1795   1.485       .  S
C1573      C1815   1.482       .  S
C1574      C1805   1.482       .  S
O1575     Ni1583   1.917       .  S
O1576     Ni1583   1.915       .  S
O1577     Ni1583   1.914       .  S
O1578     Ni1583   1.914       .  S
O1579     Ni1584   1.917       .  S
O1579      C1588   1.282       .  A
O1580     Ni1584   1.918       .  S
O1580      C1587   1.282       .  A
O1581     Ni1584   1.919       .  S
O1581      C1586   1.281       .  A
O1582     Ni1584   1.917       .  S
O1582      C1585   1.280       .  A
C1585      C1672   1.458   1_565  S
C1586      C1785   1.485       .  S
C1587      C1812   1.482       .  S
C1588      C1802   1.482       .  S
O1589     Ni1857   1.919   1_556  S
O1589      C1859   1.280       .  A
O1590     Ni1597   1.920       .  S
O1590      C1600   1.282       .  A
O1591     Ni1597   1.911       .  S
O1591      C1601   1.280       .  A
O1592     Ni1857   1.911       .  S
O1592      C1602   1.280       .  A
O1593     Ni1858   1.917       .  S
O1593      C1602   1.282       .  A
O1594     Ni1598   1.918       .  S
O1594      C1601   1.283       .  A
O1595     Ni1858   1.914       .  S
O1595      C1860   1.281       .  A
O1596     Ni1598   1.915       .  S
O1596      C1599   1.279       .  A
Ni1597     O1849   1.919       .  S
Ni1597     O1852   1.911       .  S
Ni1597    Ni1598   2.387       .  S
Ni1598     O1853   1.917       .  S
Ni1598     O1855   1.914       .  S
C1599      O1849   1.280       .  A
C1599      C1656   1.458       .  S
C1600      O1855   1.281       .  A
C1600      C1752   1.485       .  S
C1601      C1765   1.483       .  S
C1602      C1772   1.482       .  S
O1603     Ni1611   1.914       .  S
O1603      C1613   1.279       .  A
O1604     Ni1611   1.913       .  S
O1604      C1614   1.281       .  A
O1605     Ni1611   1.917       .  S
O1605      C1615   1.282       .  A
O1606     Ni1611   1.918       .  S
O1606      C1616   1.283       .  A
O1607     Ni1612   1.912       .  S
O1607      C1616   1.280       .  A
O1608     Ni1612   1.911       .  S
O1608      C1615   1.280       .  A
O1609     Ni1612   1.921       .  S
O1609      C1614   1.282       .  A
O1610     Ni1612   1.920       .  S
O1610      C1613   1.281       .  A
Ni1611    Ni1612   2.387       .  S
C1613      C1669   1.458       .  S
C1614      C1745   1.485       .  S
C1615      C1775   1.482       .  S
C1616      C1762   1.483       .  S
O1617     Ni1885   1.915       .  S
O1617      C1887   1.279   1_565  A
O1618     Ni1625   1.918       .  S
O1618      C1888   1.281       .  A
O1619     Ni1625   1.916       .  S
O1619      C1629   1.282       .  A
O1620     Ni1885   1.916   1_554  S
O1620      C1630   1.282   1_565  A
O1621     Ni1886   1.918   1_554  S
O1622     Ni1626   1.916       .  S
O1623     Ni1886   1.916       .  S
O1624     Ni1626   1.919       .  S
Ni1625     O1877   1.915       .  S
Ni1625     O1880   1.916       .  S
Ni1626     O1881   1.918       .  S
Ni1626     O1883   1.916       .  S
C1627      O1877   1.279   1_545  A
C1627      C1918   1.458       .  S
C1628      O1878   1.282       .  A
C1628      C1792   1.485       .  S
C1629      C1722   1.483       .  S
C1630      C1732   1.480   1_545  S
O1631     Ni1639   1.915       .  S
O1632     Ni1639   1.911       .  S
O1633     Ni1639   1.915       .  S
O1634     Ni1639   1.917       .  S
O1635     Ni1640   1.918       .  S
O1635      C1644   1.282       .  A
O1636     Ni1640   1.917       .  S
O1636      C1643   1.281       .  A
O1637     Ni1640   1.922       .  S
O1637      C1642   1.283       .  A
O1638     Ni1640   1.917       .  S
O1638      C1641   1.280       .  A
C1641      C1671   1.457   1_565  S
C1642      C1782   1.485       .  S
C1643      C1725   1.483       .  S
C1644      C1735   1.481       .  S
O1645      C1655   1.280       .  A
O1646     Ni1653   1.916   1_565  S
O1646      C1916   1.280   1_554  A
O1648      C1658   1.280   1_554  A
O1650     Ni1654   1.915       .  S
O1650      C1917   1.279   1_545  A
O1651     Ni1654   1.918   1_565  S
O1651      C1656   1.280       .  A
O1652      C1915   1.280       .  A
Ni1653    Ni1914   2.395   1_554  S
Ni1654    Ni1913   2.395       .  S
C1655      O1912   1.280   1_554  A
C1655      C1943   1.459       .  S
C1656      O1906   1.280       .  A
C1657      O1910   1.279   1_554  A
C1658      C1887   1.458       .  S
O1659     Ni1667   1.913   1_565  S
O1659      C1669   1.279       .  A
O1660      C1670   1.279       .  A
O1661      C1671   1.281       .  A
O1663     Ni1668   1.914       .  S
O1663      C1672   1.279       .  A
O1665      C1670   1.281       .  A
O1666     Ni1668   1.921   1_565  S
O1666      C1669   1.281       .  A
Ni1667    Ni1668   2.395       .  S
C1670      C1697   1.459       .  S
O1673     Ni1941   1.916       .  S
O1673      C1943   1.279       .  A
O1674     Ni1681   1.915       .  S
O1674      C1944   1.282       .  A
O1675     Ni1681   1.916       .  S
O1675      C1685   1.281       .  A
O1676     Ni1941   1.914       .  S
O1676      C1686   1.282       .  A
O1677     Ni1682   1.914       .  S
O1677      C1686   1.281       .  A
O1678     Ni1942   1.913       .  S
O1678      C1685   1.282       .  A
O1679     Ni1682   1.919       .  S
O1679      C1684   1.282       .  A
O1680     Ni1942   1.918       .  S
O1680      C1683   1.280       .  A
Ni1681     O1933   1.916       .  S
Ni1681     O1936   1.914       .  S
Ni1681    Ni1942   2.387       .  S
Ni1682     O1938   1.913   1_554  S
Ni1682     O1940   1.919       .  S
Ni1682    Ni1941   2.387       .  S
C1683      O1933   1.279       .  A
C1683      C1915   1.458       .  S
C1684      O1934   1.282       .  A
C1684      C1755   1.485       .  S
C1685      C1702   1.483       .  S
C1686      C1715   1.482       .  S
O1687     Ni1695   1.918       .  S
O1687      C1697   1.280       .  A
O1688     Ni1695   1.919       .  S
O1688      C1698   1.282       .  A
O1689     Ni1695   1.913       .  S
O1689      C1699   1.281       .  A
O1690     Ni1695   1.915       .  S
O1690      C1700   1.282       .  A
O1691     Ni1696   1.915       .  S
O1691      C1700   1.281       .  A
O1692     Ni1696   1.914       .  S
O1692      C1699   1.281       .  A
O1693     Ni1696   1.916       .  S
O1693      C1698   1.281       .  A
O1694     Ni1696   1.916       .  S
O1694      C1697   1.279       .  A
Ni1695    Ni1696   2.387       .  S
C1698      C1742   1.486       .  S
C1699      C1712   1.482       .  S
C1700      C1705   1.483       .  S
C1701      C1702   1.406       .  A
C1701      C1706   1.396       .  A
C1701      H1708   1.083       .  S
C1702      C1703   1.409       .  A
C1703      C1704   1.398       .  A
C1704      C1705   1.406       .  A
C1705      C1706   1.409       .  A
C1706      F1707   1.357       .  S
C1711      C1712   1.406       .  A
C1711      C1716   1.397       .  A
C1711      H1718   1.083       .  S
C1712      C1713   1.409       .  A
C1713      C1714   1.395       .  A
C1714      C1715   1.405       .  A
C1715      C1716   1.409       .  A
C1716      F1717   1.357       .  S
C1721      C1722   1.406       .  A
C1721      C1726   1.399       .  A
C1721      H1728   1.083       .  S
C1723      C1724   1.396       .  A
C1723      F1730   1.357       .  S
C1724      H1729   1.083       .  S
C1725      C1726   1.409       .  A
C1726      F1727   1.358       .  S
C1731      C1732   1.405       .  A
C1731      C1736   1.397       .  A
C1731      H1738   1.083       .  S
C1733      C1734   1.399       .  A
C1733      F1740   1.358       .  S
C1734      H1739   1.083       .  S
C1735      C1736   1.407       .  A
C1736      F1737   1.357       .  S
C1741      C1742   1.407       .  A
C1741      C1746   1.400       .  A
C1742      C1743   1.409       .  A
C1743      C1744   1.396       .  A
C1743      F1750   1.357       .  S
C1744      C1745   1.406       .  A
C1744      H1749   1.083       .  S
C1745      C1746   1.409       .  A
C1751      C1752   1.406       .  A
C1751      C1756   1.399       .  A
C1751      H1758   1.083       .  S
C1752      C2013   1.409       .  A
C1753      C2012   1.409       .  A
C1753      C1754   1.397       .  A
C1754      C1755   1.406       .  A
C1755      C2016   1.410   1_554  A
C1756      C2015   1.410       .  A
C1756      F1757   1.357       .  S
C1761      C1762   1.405       .  A
C1761      C1766   1.397       .  A
C1761      H1768   1.083       .  S
C1762      C1763   1.410       .  A
C1763      C1764   1.397       .  A
C1764      C1765   1.405       .  A
C1765      C1766   1.410       .  A
C1766      F1767   1.357       .  S
C1771      C1772   1.405       .  A
C1771      C1776   1.396       .  A
C1772      C1773   1.410       .  A
C1773      C1774   1.396       .  A
C1773      F1780   1.357       .  S
C1774      C1775   1.405       .  A
C1774      H1779   1.083       .  S
C1775      C1776   1.410       .  A
C1781      C1782   1.407       .  A
C1781      C1786   1.401       .  A
C1781      H1788   1.083       .  S
C1783      C1784   1.395       .  A
C1783      F1790   1.357       .  S
C1784      H1789   1.083       .  S
C1785      C1786   1.410       .  A
C1786      F1787   1.357       .  S
C1791      C1796   1.397       .  A
C1791      H1798   1.083       .  S
C1792      C1793   1.410       .  A
C1793      C1794   1.399       .  A
C1793      F1800   1.357       .  S
C1794      H1799   1.083       .  S
C1795      C1796   1.410       .  A
C1796      F1797   1.357       .  S
C1801      C1802   1.405       .  A
C1801      C1806   1.397       .  A
C1801      H1808   1.083       .  S
C1803      C1804   1.398       .  A
C1803      F1810   1.357       .  S
C1804      H1809   1.083       .  S
C1805      C1806   1.409       .  A
C1806      F1807   1.357       .  S
C1811      C1816   1.397       .  A
C1811      H1818   1.083       .  S
C1812      C1813   1.408       .  A
C1813      C1814   1.398       .  A
C1813      F1820   1.357       .  S
C1814      C1815   1.406       .  A
C1814      H1819   1.083       .  S
C1816      F1817   1.357       .  S
O1822     Ni1829   1.919       .  S
O1823     Ni1829   1.915       .  S
O1823      C1833   1.281       .  A
O1824      C1834   1.281       .  A
O1826     Ni1830   1.918       .  S
O1827      C1832   1.281       .  A
O1828     Ni1830   1.913       .  S
O1828      C1831   1.279       .  A
C1832      C2055   1.485       .  S
C1833      C2075   1.482       .  S
C1834      C2065   1.482       .  S
O1835     Ni1843   1.917       .  S
O1836     Ni1843   1.916       .  S
O1837     Ni1843   1.915       .  S
O1838     Ni1843   1.914       .  S
O1839     Ni1844   1.917       .  S
O1839      C1848   1.282       .  A
O1840     Ni1844   1.918       .  S
O1840      C1847   1.282       .  A
O1841     Ni1844   1.919       .  S
O1841      C1846   1.281       .  A
O1842     Ni1844   1.917       .  S
O1842      C1845   1.280       .  A
C1845      C1932   1.458   1_565  S
C1846      C2045   1.485       .  S
C1847      C2072   1.482       .  S
C1848      C2062   1.482       .  S
O1850     Ni1857   1.920       .  S
O1850      C1860   1.282       .  A
O1851     Ni1857   1.911   1_556  S
O1851      C1861   1.280       .  A
O1852      C1862   1.280       .  A
O1853      C1862   1.282       .  A
O1854     Ni1858   1.918   1_556  S
O1854      C1861   1.283       .  A
O1856     Ni1858   1.915   1_556  S
O1856      C1859   1.279       .  A
Ni1857    Ni1858   2.387       .  S
C1859      C1916   1.458       .  S
C1860      C2012   1.485       .  S
C1861      C2025   1.483       .  S
C1862      C2032   1.482       .  S
O1863     Ni1871   1.914       .  S
O1863      C1873   1.279       .  A
O1864     Ni1871   1.913       .  S
O1864      C1874   1.281       .  A
O1865     Ni1871   1.917       .  S
O1865      C1875   1.282       .  A
O1866     Ni1871   1.918       .  S
O1866      C1876   1.283       .  A
O1867     Ni1872   1.912       .  S
O1867      C1876   1.280       .  A
O1868     Ni1872   1.911       .  S
O1868      C1875   1.280       .  A
O1869     Ni1872   1.921       .  S
O1869      C1874   1.282       .  A
O1870     Ni1872   1.920       .  S
O1870      C1873   1.281       .  A
Ni1871    Ni1872   2.387       .  S
C1873      C1929   1.458       .  S
C1874      C2005   1.485       .  S
C1875      C2035   1.482       .  S
C1876      C2022   1.483       .  S
O1878     Ni1885   1.919       .  S
O1879     Ni1885   1.916       .  S
O1879      C1889   1.282       .  A
O1880      C1890   1.282   1_565  A
O1882     Ni1886   1.916       .  S
O1884     Ni1886   1.919       .  S
C1888      C2052   1.485       .  S
C1889      C1982   1.483       .  S
C1890      C1992   1.480   1_545  S
O1891     Ni1899   1.915       .  S
O1892     Ni1899   1.911       .  S
O1893     Ni1899   1.915       .  S
O1894     Ni1899   1.917       .  S
O1895     Ni1900   1.918       .  S
O1895      C1904   1.282       .  A
O1896     Ni1900   1.917       .  S
O1896      C1903   1.281       .  A
O1897     Ni1900   1.922       .  S
O1897      C1902   1.283       .  A
O1898     Ni1900   1.917       .  S
O1898      C1901   1.280       .  A
C1901      C1931   1.457   1_565  S
C1902      C2042   1.485       .  S
C1903      C1985   1.483       .  S
C1904      C1995   1.481       .  S
O1905      C1915   1.280       .  A
O1906     Ni1913   1.916   1_565  S
O1908      C1918   1.280       .  A
O1910     Ni1914   1.915       .  S
O1911     Ni1914   1.918   1_565  S
O1911      C1916   1.280       .  A
O1919     Ni1927   1.913   1_565  S
O1919      C1929   1.279       .  A
O1920      C1930   1.279       .  A
O1921      C1931   1.281       .  A
O1923     Ni1928   1.914       .  S
O1923      C1932   1.279       .  A
O1925      C1930   1.281       .  A
O1926     Ni1928   1.921   1_565  S
O1926      C1929   1.281       .  A
Ni1927    Ni1928   2.395       .  S
C1930      C1957   1.459       .  S
O1934     Ni1941   1.915       .  S
O1935     Ni1941   1.916   1_556  S
O1935      C1945   1.281       .  A
O1936      C1946   1.282       .  A
O1937     Ni1942   1.914       .  S
O1937      C1946   1.281       .  A
O1938      C1945   1.282       .  A
O1939     Ni1942   1.919       .  S
O1939      C1944   1.282       .  A
O1940      C1943   1.280       .  A
C1944      C2015   1.485       .  S
C1945      C1962   1.483       .  S
C1946      C1975   1.482       .  S
O1947     Ni1955   1.918       .  S
O1947      C1957   1.280       .  A
O1948     Ni1955   1.919       .  S
O1948      C1958   1.282       .  A
O1949     Ni1955   1.913       .  S
O1949      C1959   1.281       .  A
O1950     Ni1955   1.915       .  S
O1950      C1960   1.282       .  A
O1951     Ni1956   1.915       .  S
O1951      C1960   1.281       .  A
O1952     Ni1956   1.914       .  S
O1952      C1959   1.281       .  A
O1953     Ni1956   1.916       .  S
O1953      C1958   1.281       .  A
O1954     Ni1956   1.916       .  S
O1954      C1957   1.279       .  A
Ni1955    Ni1956   2.387       .  S
C1958      C2002   1.486       .  S
C1959      C1972   1.482       .  S
C1960      C1965   1.483       .  S
C1961      C1962   1.406       .  A
C1961      C1966   1.396       .  A
C1961      H1968   1.083       .  S
C1962      C1963   1.409       .  A
C1963      C1964   1.398       .  A
C1964      C1965   1.406       .  A
C1965      C1966   1.409       .  A
C1966      F1967   1.357       .  S
C1971      C1972   1.406       .  A
C1971      C1976   1.397       .  A
C1971      H1978   1.083       .  S
C1972      C1973   1.409       .  A
C1973      C1974   1.395       .  A
C1974      C1975   1.405       .  A
C1975      C1976   1.409       .  A
C1976      F1977   1.357       .  S
C1981      C1982   1.406       .  A
C1981      C1986   1.399       .  A
C1981      H1988   1.083       .  S
C1983      C1984   1.396       .  A
C1983      F1990   1.357       .  S
C1984      H1989   1.083       .  S
C1985      C1986   1.409       .  A
C1986      F1987   1.358       .  S
C1991      C1992   1.405       .  A
C1991      C1996   1.397       .  A
C1991      H1998   1.083       .  S
C1993      C1994   1.399       .  A
C1993      F2000   1.358       .  S
C1994      H1999   1.083       .  S
C1995      C1996   1.407       .  A
C1996      F1997   1.357       .  S
C2001      C2002   1.407       .  A
C2001      C2006   1.400       .  A
C2002      C2003   1.409       .  A
C2003      C2004   1.396       .  A
C2003      F2010   1.357       .  S
C2004      C2005   1.406       .  A
C2004      H2009   1.083       .  S
C2005      C2006   1.409       .  A
C2011      C2012   1.406   1_556  A
C2011      C2016   1.399       .  A
C2011      H2018   1.083       .  S
C2013      C2014   1.397       .  A
C2014      C2015   1.406       .  A
C2016      F2017   1.357       .  S
C2021      C2022   1.405       .  A
C2021      C2026   1.397       .  A
C2021      H2028   1.083       .  S
C2022      C2023   1.410       .  A
C2023      C2024   1.397       .  A
C2024      C2025   1.405       .  A
C2025      C2026   1.410       .  A
C2026      F2027   1.357       .  S
C2031      C2032   1.405       .  A
C2031      C2036   1.396       .  A
C2032      C2033   1.410       .  A
C2033      C2034   1.396       .  A
C2033      F2040   1.357       .  S
C2034      C2035   1.405       .  A
C2034      H2039   1.083       .  S
C2035      C2036   1.410       .  A
C2041      C2042   1.407       .  A
C2041      C2046   1.401       .  A
C2041      H2048   1.083       .  S
C2043      C2044   1.395       .  A
C2043      F2050   1.357       .  S
C2044      H2049   1.083       .  S
C2045      C2046   1.410       .  A
C2046      F2047   1.357       .  S
C2051      C2056   1.396       .  A
C2051      H2058   1.083       .  S
C2052      C2053   1.410       .  A
C2053      C2054   1.399       .  A
C2053      F2060   1.357       .  S
C2054      H2059   1.083       .  S
C2055      C2056   1.410       .  A
C2056      F2057   1.357       .  S
C2061      C2062   1.405       .  A
C2061      C2066   1.397       .  A
C2061      H2068   1.083       .  S
C2063      C2064   1.397       .  A
C2063      F2070   1.357       .  S
C2064      H2069   1.083       .  S
C2065      C2066   1.409       .  A
C2066      F2067   1.357       .  S
C2071      C2076   1.397       .  A
C2071      H2078   1.083       .  S
C2072      C2073   1.408       .  A
C2073      C2074   1.398       .  A
C2073      F2080   1.357       .  S
C2074      C2075   1.406       .  A
C2074      H2079   1.083       .  S
C2076      F2077   1.357       .  S
