geometry optimzed in LAMMPS
_audit_creation_date              2020-12-01 
_audit_creation_method            'lammps2cif' 
_symmetry_space_group_name_H-M    'P1' 
_symmetry_Int_Tables_number       1 
_symmetry_cell_setting            triclinic 
loop_ 
_symmetry_equiv_pos_as_xyz 
  x,y,z 
_cell_length_a                    55.40832578 
_cell_length_b                    55.78245678946739 
_cell_length_c                    55.30569312448388 
_cell_angle_alpha                 89.81170097706394 
_cell_angle_beta                  89.53059084004903 
_cell_angle_gamma                 89.91406714004955 
loop_ 
_atom_site_label 
_atom_site_type_symbol 
_atom_site_fract_x 
_atom_site_fract_y 
_atom_site_fract_z 
_atom_site_charge 
N1          N  0.55663219  0.87807067  0.74173560    -0.03100
C2          C  0.56697012  0.89751637  0.75195567    -0.00500
C3          C  0.59044223  0.89242964  0.75845002    -0.23400
C4          C  0.59470748  0.86899129  0.75205382    -0.23600
C5          C  0.57376918  0.86062103  0.74160798    -0.00600
H6          H  0.60305075  0.90446768  0.76699436     0.13100
H7          H  0.61136843  0.85916741  0.75451463     0.13200
N8          N  0.55989910  0.08320161  0.80784948    -0.03100
C9          C  0.57184516  0.06309996  0.80077021    -0.00500
C10         C  0.59532248  0.06863068  0.79419027    -0.23400
C11         C  0.59795798  0.09288252  0.79726310    -0.23600
C12         C  0.57604939  0.10143184  0.80570927    -0.00600
H13         H  0.60891255  0.05641007  0.78732448     0.13100
H14         H  0.61415818  0.10319820  0.79380170     0.13200
N15         N  0.86706670  0.70182105  0.59525647    -0.03100
C16         C  0.88720758  0.71104391  0.60543431    -0.00500
C17         C  0.88237667  0.71841116  0.62877906    -0.23400
C18         C  0.85838550  0.71390841  0.63306340    -0.23600
C19         C  0.84925468  0.70418148  0.61208168    -0.00600
H20         H  0.89503877  0.72606149  0.64138489     0.13100
H21         H  0.84873850  0.71703973  0.64984971     0.13200
N22         N  0.07596452  0.76191495  0.60624669    -0.03100
C23         C  0.05640165  0.75188877  0.61715442    -0.00500
C24         C  0.06189939  0.74497942  0.64051637    -0.23400
C25         C  0.08552105  0.75123575  0.64427228    -0.23600
C26         C  0.09361638  0.76179021  0.62312259    -0.00600
H27         H  0.04988630  0.73657949  0.65352668     0.13100
H28         H  0.09555394  0.74891007  0.66082472     0.13200
N29         N  0.56488134  0.69166733  0.42174240    -0.03100
C30         C  0.54597334  0.70373619  0.41212348    -0.00500
C31         C  0.54851120  0.70491005  0.38721799    -0.23400
C32         C  0.56984253  0.69355599  0.38144310    -0.23600
C33         C  0.57963309  0.68579232  0.40297820    -0.00600
H34         H  0.53614690  0.71309201  0.37457875     0.13100
H35         H  0.57772351  0.69181032  0.36356582     0.13200
N36         N  0.36105129  0.76088776  0.42943105    -0.03100
C37         C  0.37947741  0.74765752  0.42006037    -0.00500
C38         C  0.37522102  0.74290069  0.39592820    -0.23400
C39         C  0.35348881  0.75333649  0.39033531    -0.23600
C40         C  0.34509453  0.76421074  0.41117307    -0.00600
H41         H  0.38687560  0.73315090  0.38360755     0.13100
H42         H  0.34461995  0.75284676  0.37298424     0.13200
N43         N  0.67868574  0.57038970  0.91108335    -0.03100
C44         C  0.69058241  0.57902418  0.93053843    -0.00500
C45         C  0.69675389  0.60279044  0.92658037    -0.23400
C46         C  0.68891164  0.60872067  0.90382234    -0.23600
C47         C  0.67816990  0.58845922  0.89462104    -0.00600
H48         H  0.70595536  0.61461127  0.93892904     0.13100
H49         H  0.69115814  0.62581902  0.89478794     0.13200
N50         N  0.74143645  0.56273030  0.11546765    -0.03100
C51         C  0.72704205  0.57110977  0.09757916    -0.00500
C52         C  0.72258837  0.59531036  0.10099865    -0.23400
C53         C  0.73426295  0.60187019  0.12176175    -0.23600
C54         C  0.74553930  0.58154606  0.13036731    -0.00600
H55         H  0.71217892  0.60705268  0.08946118     0.13100
H56         H  0.73408728  0.61943187  0.13001776     0.13200
O57         O  0.55927529  0.36691286  0.84838728    -0.78200
C58         C  0.62108438  0.40333449  0.88095370     0.82900
O59         O  0.63364899  0.33311185  0.81358429    -0.79300
O60         O  0.66185995  0.33710142  0.89713083    -0.80800
O61         O  0.58025265  0.31663521  0.91743387    -0.80600
O62         O  0.54796906  0.33480352  0.86945926    -0.79200
Zn63       Zn  0.59608878  0.36611552  0.84939655     1.55700
O64         O  0.61079959  0.33992985  0.92840923    -0.80600
Cd65       Cd  0.58022377  0.31959087  0.88010287     1.59700
Cd66       Cd  0.63016299  0.31844730  0.84814363     1.59600
O67         O  0.58135872  0.28519986  0.86614591    -0.80600
O68         O  0.60822426  0.33906684  0.86821979    -1.91100
Cd69       Cd  0.62688780  0.35086602  0.89654689     1.59900
O70         O  0.61554452  0.28427209  0.84476481    -0.80500
O71         O  0.62886421  0.38784785  0.89599403    -0.79200
C72         C  0.62311533  0.35081276  0.80344038     0.83400
C73         C  0.54278223  0.35314839  0.85672509     0.83000
O74         O  0.60857047  0.39745096  0.86267849    -0.78100
C75         C  0.59348364  0.32582359  0.93371980     0.83800
O76         O  0.60825654  0.36393396  0.81513226    -0.78200
C77         C  0.59647053  0.27405162  0.85277555     0.83900
C78         C  0.67370524  0.32311389  0.88317993     0.84300
O79         O  0.66423583  0.31493574  0.86390313    -0.80700
O80         O  0.30366928  0.88133610  0.63272514    -0.78200
C81         C  0.34151083  0.82187029  0.59841578     0.82900
O82         O  0.27282749  0.80999626  0.67058458    -0.79300
O83         O  0.35720099  0.78390449  0.66648854    -0.80800
O84         O  0.37397003  0.86741535  0.68289651    -0.80600
O85         O  0.32424302  0.89638984  0.66333209    -0.79200
Zn86       Zn  0.30738393  0.84547939  0.63490492     1.55700
O87         O  0.38713186  0.83559032  0.66244964    -0.80600
Cd88       Cd  0.33673178  0.86564217  0.68040933     1.59700
Cd89       Cd  0.30710471  0.81515838  0.68433790     1.59600
O90         O  0.32257746  0.86546229  0.71523351    -0.80600
O91         O  0.32667563  0.83621399  0.66252877    -1.91100
Cd92       Cd  0.35610540  0.81818926  0.65162865     1.59900
O93         O  0.30290115  0.83076916  0.71803938    -0.80500
O94         O  0.35650611  0.81491369  0.61434314    -0.79200
C95         C  0.26261958  0.81793273  0.65161046     0.83400
C96         C  0.31099251  0.89927278  0.64478305     0.83000
O97         O  0.32252392  0.83353111  0.60411584    -0.78100
C98         C  0.39115851  0.85436100  0.67489373     0.83800
O99         O  0.27393456  0.83152528  0.63686428    -0.78200
C100        C  0.30968982  0.85057457  0.72719457     0.83900
C101        C  0.34305255  0.77246568  0.68070734     0.84300
O102        O  0.32357937  0.78199642  0.68854754    -0.80700
N103        N  0.05787745  0.58821023  0.30210958    -0.03100
C104        C  0.07018490  0.56832018  0.29515309    -0.00500
C105        C  0.09422285  0.57380901  0.29117859    -0.23400
C106        C  0.09679661  0.59787367  0.29584532    -0.23600
C107        C  0.07429786  0.60621707  0.30270530    -0.00600
H108        H  0.10832724  0.56162229  0.28538866     0.13100
H109        H  0.11336584  0.60809034  0.29484607     0.13200
N110        N  0.05488739  0.37857970  0.24481341    -0.03100
C111        C  0.06727816  0.39835279  0.25190774    -0.00500
C112        C  0.09015157  0.39193847  0.25940890    -0.23400
C113        C  0.09211653  0.36761946  0.25655750    -0.23600
C114        C  0.07027318  0.35976577  0.24774419    -0.00600
H115        H  0.10405803  0.40378041  0.26601925     0.13100
H116        H  0.10814352  0.35696770  0.25964070     0.13200
O117        O  0.86668879  0.59612533  0.34236850    -0.78200
C118        C  0.80542786  0.56163545  0.37957791     0.82900
O119        O  0.79382382  0.63227561  0.30895477    -0.79300
O120        O  0.76483333  0.62729678  0.39116274    -0.80800
O121        O  0.84826001  0.64763693  0.41128351    -0.80600
O122        O  0.87907483  0.62813304  0.36261188    -0.79200
Zn123      Zn  0.82978993  0.59762367  0.34494608     1.55700
O124        O  0.81549487  0.62804008  0.42403428    -0.80600
Cd125      Cd  0.84763759  0.64438689  0.37402928     1.59700
Cd126      Cd  0.79816046  0.64730658  0.34305426     1.59600
O127        O  0.84818849  0.67847558  0.35908143    -0.80600
O128        O  0.81897699  0.62568700  0.36327458    -1.91100
Cd129      Cd  0.80017203  0.61502209  0.39249180     1.59900
O130        O  0.81403320  0.68113794  0.33835211    -0.80500
O131        O  0.79838660  0.57795254  0.39411560    -0.79200
C132        C  0.80254801  0.61335299  0.29928877     0.83400
C133        C  0.88361828  0.60953633  0.35005521     0.83000
O134        O  0.81722713  0.56673448  0.36031030    -0.78100
C135        C  0.83424725  0.64056284  0.42825986     0.83800
O136        O  0.81637369  0.59933864  0.31106912    -0.78200
C137        C  0.83394635  0.69018241  0.34544171     0.83900
C138        C  0.75352936  0.64148259  0.37708136     0.84300
O139        O  0.76390188  0.65089443  0.35866095    -0.80700
N140        N  0.86844892  0.28734292  0.92117853    -0.03100
C141        C  0.88905894  0.28178385  0.90886492    -0.00500
C142        C  0.88396579  0.27852075  0.88463285    -0.23400
C143        C  0.85957480  0.28211921  0.88195937    -0.23600
C144        C  0.85046222  0.28745860  0.90459378    -0.00600
H145        H  0.89653695  0.27335381  0.87050069     0.13100
H146        H  0.84952192  0.28086792  0.86532024     0.13200
N147        N  0.07427177  0.21298952  0.92862196    -0.03100
C148        C  0.05518679  0.22352779  0.91744279    -0.00500
C149        C  0.06178858  0.23109795  0.89450892    -0.23400
C150        C  0.08570551  0.22531858  0.89144823    -0.23600
C151        C  0.09296741  0.21436843  0.91260869    -0.00600
H152        H  0.05043221  0.24013715  0.88150595     0.13100
H153        H  0.09661940  0.22857308  0.87545756     0.13200
O154        O  0.80120331  0.38123019  0.13304452    -0.78200
C155        C  0.84134829  0.32450508  0.09688351     0.82900
O156        O  0.77140461  0.30806474  0.16774956    -0.79300
O157        O  0.85539887  0.28359193  0.16391271    -0.80800
O158        O  0.87278341  0.36695596  0.18262616    -0.80600
O159        O  0.82135686  0.39525648  0.16469904    -0.79200
Zn160      Zn  0.80576378  0.34539283  0.13389454     1.55700
O161        O  0.88607545  0.33505345  0.16243143    -0.80600
Cd162      Cd  0.83535669  0.36454413  0.18028920     1.59700
Cd163      Cd  0.80509675  0.31452920  0.18275253     1.59600
O164        O  0.82156016  0.36321067  0.21518609    -0.80600
O165        O  0.82512426  0.33579081  0.16148008    -1.91100
Cd166      Cd  0.85491676  0.31833764  0.15026341     1.59900
O167        O  0.79975042  0.32974292  0.21669707    -0.80500
O168        O  0.85614345  0.31685470  0.11272207    -0.79200
C169        C  0.76127757  0.31594984  0.14868476     0.83400
C170        C  0.80788699  0.39850938  0.14640224     0.83000
O171        O  0.82205607  0.33534178  0.10308689    -0.78100
C172        C  0.89007209  0.35379824  0.17495361     0.83800
O173        O  0.77243404  0.33028063  0.13449619    -0.78200
C174        C  0.80765337  0.34880083  0.22656492     0.83900
C175        C  0.84156132  0.27232421  0.17856080     0.84300
O176        O  0.82241258  0.28195890  0.18711782    -0.80700
N177        N  0.36348553  0.20549042  0.10223858    -0.03100
C178        C  0.38376324  0.21301996  0.11347697    -0.00500
C179        C  0.37853379  0.22005894  0.13686700    -0.23400
C180        C  0.35421594  0.21671002  0.14025549    -0.23600
C181        C  0.34538915  0.20760612  0.11886726    -0.00600
H182        H  0.39105668  0.22711832  0.14995544     0.13100
H183        H  0.34408044  0.22018898  0.15668830     0.13200
N184        N  0.57099802  0.26918754  0.10481767    -0.03100
C185        C  0.55089461  0.26008714  0.11557430    -0.00500
C186        C  0.55621482  0.25154771  0.13839311    -0.23400
C187        C  0.58047299  0.25520018  0.14172473    -0.23600
C188        C  0.58912331  0.26604096  0.12091203    -0.00600
H189        H  0.54389897  0.24290572  0.15094774     0.13100
H190        H  0.59073216  0.25047179  0.15761266     0.13200
N191        N  0.26030185  0.89096872  0.91658155    -0.03100
C192        C  0.24879914  0.88221857  0.93650712    -0.00500
C193        C  0.24543133  0.85775625  0.93417607    -0.23400
C194        C  0.25481681  0.85132749  0.91210174    -0.23600
C195        C  0.26394732  0.87196683  0.90165427    -0.00600
H196        H  0.23637795  0.84594280  0.94687732     0.13100
H197        H  0.25382442  0.83371028  0.90405945     0.13200
N198        N  0.18350030  0.89960252  0.12024453    -0.03100
C199        C  0.19515776  0.88939474  0.10121945    -0.00500
C200        C  0.19768291  0.86500879  0.10499737    -0.23400
C201        C  0.18700623  0.85998659  0.12695024    -0.23600
C202        C  0.17850237  0.88149762  0.13594688    -0.00600
H203        H  0.20605855  0.85220417  0.09288451     0.13100
H204        H  0.18590145  0.84259600  0.13561697     0.13200
O205        O  0.36936645  0.09531287  0.84881929    -0.78200
C206        C  0.30694919  0.06244861  0.88665468     0.82900
O207        O  0.29446122  0.12907713  0.81695140    -0.79300
O208        O  0.27002272  0.13188980  0.90085763    -0.80800
O209        O  0.35275218  0.14815649  0.91754657    -0.80600
O210        O  0.38267919  0.12737819  0.86836401    -0.79200
Zn211      Zn  0.33276172  0.09731202  0.85212856     1.55700
O212        O  0.32133759  0.12696521  0.93107487    -0.80600
Cd213      Cd  0.35148415  0.14455103  0.88005327     1.59700
Cd214      Cd  0.30138809  0.14613874  0.84951161     1.59600
O215        O  0.35113192  0.17862177  0.86430806    -0.80600
O216        O  0.32253367  0.12561128  0.87024329    -1.91100
Cd217      Cd  0.30391101  0.11580074  0.89997723     1.59900
O218        O  0.31778928  0.17893353  0.84217966    -0.80500
O219        O  0.29920237  0.07882007  0.90081673    -0.79200
C220        C  0.30276428  0.10983608  0.80758837     0.83400
C221        C  0.38670511  0.10836525  0.85620836     0.83000
O222        O  0.32025798  0.06747455  0.86846055    -0.78100
C223        C  0.33978741  0.14005019  0.93493009     0.83800
O224        O  0.31800557  0.09685761  0.81877501    -0.78200
C225        C  0.33694138  0.18917187  0.84961181     0.83900
C226        C  0.25903214  0.14622321  0.88668184     0.84300
O227        O  0.26858117  0.15306920  0.86673475    -0.80700
N228        N  0.18205937  0.07345430  0.41306666    -0.03100
C229        C  0.18915816  0.08488553  0.43343826    -0.00500
C230        C  0.19610480  0.10812196  0.42797372    -0.23400
C231        C  0.19340555  0.11101989  0.40345800    -0.23600
C232        C  0.18483176  0.08949746  0.39482406    -0.00600
H233        H  0.20273685  0.12143168  0.44045811     0.13100
H234        H  0.19688949  0.12716252  0.39310716     0.13200
N235        N  0.24103228  0.06375809  0.62259028    -0.03100
C236        C  0.23175748  0.07507736  0.60293871    -0.00500
C237        C  0.22387141  0.09779739  0.60887224    -0.23400
C238        C  0.22845584  0.10081751  0.63293897    -0.23600
C239        C  0.23896959  0.07980821  0.64102242    -0.00600
H240        H  0.21572051  0.11080705  0.59687576     0.13100
H241        H  0.22496677  0.11685689  0.64336281     0.13200
O242        O  0.13662771  0.08740759  0.12993984    -0.78200
C243        C  0.09572234  0.14781053  0.09698766     0.82900
O244        O  0.16495319  0.15994141  0.16751786    -0.79300
O245        O  0.08159282  0.18320720  0.16800754    -0.80800
O246        O  0.06524600  0.09916333  0.18124413    -0.80600
O247        O  0.11695471  0.07237267  0.16187463    -0.79200
Zn248      Zn  0.13113855  0.12351472  0.13200821     1.55700
O249        O  0.05191193  0.13210012  0.16286195    -0.80600
Cd250      Cd  0.10243983  0.10203709  0.17851041     1.59700
Cd251      Cd  0.13190115  0.15182686  0.18326901     1.59600
O252        O  0.11596847  0.10114524  0.21316916    -0.80600
O253        O  0.11232886  0.13176010  0.16081431    -1.91100
Cd254      Cd  0.08272327  0.14994633  0.15127840     1.59900
O255        O  0.13818707  0.13414616  0.21573240    -0.80500
O256        O  0.08164614  0.15481158  0.11396177    -0.79200
C257        C  0.17483815  0.15341922  0.14769688     0.83400
C258        C  0.13026938  0.06970363  0.14320048     0.83000
O259        O  0.11458977  0.13552728  0.10161349    -0.78100
C260        C  0.04799186  0.11274557  0.17461718     0.83800
O261        O  0.16390485  0.13962202  0.13305327    -0.78200
C262        C  0.13022267  0.11462672  0.22484179     0.83900
C263        C  0.09478769  0.19342447  0.18368899     0.84300
O264        O  0.11413654  0.18362089  0.19129322    -0.80700
N265        N  0.87888811  0.87604293  0.28996476    -0.03100
C266        C  0.86897264  0.89636436  0.28067611    -0.00500
C267        C  0.84690626  0.89141907  0.27040844    -0.23400
C268        C  0.84314778  0.86724784  0.27310277    -0.23600
C269        C  0.86302584  0.85814503  0.28502040    -0.00600
H270        H  0.83483118  0.90409633  0.26188366     0.13100
H271        H  0.82727844  0.85747577  0.26756135     0.13200
N272        N  0.88015214  0.08682936  0.23944996    -0.03100
C273        C  0.86927455  0.06682327  0.24809547    -0.00500
C274        C  0.84597656  0.07191558  0.25557961    -0.23400
C275        C  0.84236102  0.09595481  0.25132394    -0.23600
C276        C  0.86361391  0.10466536  0.24143165    -0.00600
H277        H  0.83299225  0.05943341  0.26312297     0.13100
H278        H  0.82588339  0.10591100  0.25459532     0.13200
O279        O  0.06121472  0.86818667  0.35228554    -0.78200
C280        C  0.12359919  0.90507053  0.38616097     0.82900
O281        O  0.13641204  0.83715242  0.31787635    -0.79300
O282        O  0.16352338  0.83779499  0.40130271    -0.80800
O283        O  0.08150946  0.81912824  0.42157996    -0.80600
O284        O  0.04976996  0.83556221  0.37232339    -0.79200
Zn285      Zn  0.09795112  0.86842764  0.35426277     1.55700
O286        O  0.11246599  0.84163844  0.43315061    -0.80600
Cd287      Cd  0.08217367  0.82127157  0.38413176     1.59700
Cd288      Cd  0.13189680  0.82078890  0.35169551     1.59600
O289        O  0.08404656  0.78680340  0.37041109    -0.80600
O290        O  0.11012305  0.84096504  0.37247419    -1.91100
Cd291      Cd  0.12890254  0.85216911  0.40103142     1.59900
O292        O  0.11681449  0.78691034  0.34694548    -0.80500
O293        O  0.13217793  0.88904075  0.40017667    -0.79200
C294        C  0.12640654  0.85551050  0.30829427     0.83400
C295        C  0.04462628  0.85404923  0.35977677     0.83000
O296        O  0.10976917  0.89959249  0.36871781    -0.78100
C297        C  0.09448771  0.82818201  0.43815398     0.83800
O298        O  0.11115796  0.86800591  0.32015139    -0.78200
C299        C  0.09833952  0.77621843  0.35571860     0.83900
C300        C  0.17513536  0.82381781  0.38720173     0.84300
O301        O  0.16562184  0.81590380  0.36782257    -0.80700
N302        N  0.37081076  0.38134616  0.80573639    -0.03100
C303        C  0.35978132  0.40207411  0.79893485    -0.00500
C304        C  0.33620337  0.39752926  0.79233220    -0.23400
C305        C  0.33262809  0.37330984  0.79490401    -0.23600
C306        C  0.35411829  0.36371631  0.80296815    -0.00600
H307        H  0.32322549  0.41035072  0.78552762     0.13100
H308        H  0.31615384  0.36367173  0.79112742     0.13200
N309        N  0.38528454  0.58732725  0.74034116    -0.03100
C310        C  0.37418077  0.56827468  0.75071705    -0.00500
C311        C  0.35124638  0.57460335  0.75842255    -0.23400
C312        C  0.34817796  0.59842049  0.75250951    -0.23600
C313        C  0.36932771  0.60568769  0.74135201    -0.00600
H314        H  0.33822812  0.56314964  0.76744771     0.13100
H315        H  0.33217641  0.60915008  0.75564844     0.13200
N316        N  0.75284105  0.39255238  0.41395759    -0.03100
C317        C  0.74137737  0.38346022  0.43373590    -0.00500
C318        C  0.73984110  0.35877385  0.43196048    -0.23400
C319        C  0.75068854  0.35248834  0.41047484    -0.23600
C320        C  0.75858200  0.37351969  0.39978652    -0.00600
H321        H  0.73191929  0.34659771  0.44506156     0.13100
H322        H  0.75227316  0.33454539  0.40324739     0.13200
N323        N  0.67691796  0.39620057  0.61659358    -0.03100
C324        C  0.68986798  0.38604129  0.59841787    -0.00500
C325        C  0.69050309  0.36141391  0.60148735    -0.23400
C326        C  0.67754978  0.35635978  0.62222463    -0.23600
C327        C  0.66931340  0.37804366  0.63107705    -0.00600
H328        H  0.69911357  0.34847384  0.58969389     0.13100
H329        H  0.67483130  0.33883653  0.63023864     0.13200
O330        O  0.58394958  0.65468433  0.61187247    -0.78200
C331        C  0.55068576  0.61335447  0.67097686     0.82900
O332        O  0.62014256  0.68476483  0.68412378    -0.79300
O333        O  0.61705313  0.60292787  0.71014429    -0.80800
O334        O  0.63684868  0.58503152  0.62561317    -0.80600
O335        O  0.61606382  0.63521403  0.59731052    -0.79200
Zn336      Zn  0.58549758  0.65006781  0.64835644     1.55700
O337        O  0.61950002  0.57209167  0.65969371    -0.80600
Cd338      Cd  0.63256006  0.62192151  0.62776692     1.59700
Cd339      Cd  0.63593712  0.65148874  0.67828128     1.59600
O340        O  0.66681693  0.63617455  0.62760809    -0.80600
O341        O  0.61425793  0.63186109  0.65732557    -1.91100
Cd342      Cd  0.60457590  0.60224991  0.67521523     1.59900
O343        O  0.66966686  0.65669334  0.66182209    -0.80500
O344        O  0.56744025  0.59897153  0.67716706    -0.79200
C345        C  0.60041029  0.69437745  0.67729157     0.83400
C346        C  0.59740659  0.64821003  0.59421872     0.83000
O347        O  0.55529791  0.63306530  0.66012025    -0.78100
C348        C  0.63144751  0.56821119  0.64032404     0.83800
O349        O  0.58570041  0.68307925  0.66384751    -0.78200
C350        C  0.67876586  0.64945958  0.64181240     0.83900
C351        C  0.63115266  0.61659027  0.72179715     0.84300
O352        O  0.64045077  0.63524225  0.71203018    -0.80700
C353        C  0.67147310  0.42117483  0.61967683    -0.19500
C354        C  0.69000096  0.43803499  0.62275051     0.36700
C355        C  0.68418834  0.46232597  0.62573164    -0.25500
C356        C  0.66004074  0.46986215  0.62584542     0.03100
C357        C  0.64139835  0.45291042  0.62339471     0.27900
C358        C  0.64733065  0.42865042  0.62022803    -0.24600
N359        N  0.71463216  0.43034278  0.62353860    -0.82000
H360        H  0.69849524  0.47531311  0.62810189     0.13700
C361        C  0.65429104  0.49546395  0.62926094     0.03100
N362        N  0.61658856  0.46045378  0.62429885    -0.80600
H363        H  0.63318525  0.41544770  0.61816584     0.18600
C364        C  0.64659706  0.50912575  0.60944787    -0.25400
C365        C  0.63969274  0.53323701  0.61229049     0.36600
C366        C  0.63994567  0.54351271  0.63560766    -0.19500
C367        C  0.64800414  0.52977452  0.65531559    -0.24700
C368        C  0.65532717  0.50587902  0.65234235     0.28000
H369        H  0.64586437  0.50085248  0.59176585     0.13700
N370        N  0.63150983  0.54688071  0.59183476    -0.82000
H371        H  0.64853063  0.53773707  0.67315364     0.18600
N372        N  0.66354414  0.49203499  0.67266047    -0.80600
H373        H  0.63086747  0.53608981  0.57642819     0.34200
H374        H  0.64448002  0.56001078  0.58817215     0.38700
H375        H  0.66344833  0.50243819  0.68835268     0.34200
H376        H  0.65116740  0.47817250  0.67557737     0.30900
H377        H  0.60510672  0.44576866  0.62212004     0.34200
H378        H  0.61319238  0.46718816  0.64161749     0.30900
H379        H  0.72416651  0.43940315  0.60991076     0.38700
H380        H  0.72173616  0.43545446  0.64018361     0.34200
C381        C  0.73255740  0.39676097  0.45527314    -0.19500
C382        C  0.70908815  0.39229009  0.46425645     0.36700
C383        C  0.70299498  0.39909111  0.48791920    -0.25500
C384        C  0.71979228  0.41045433  0.50287227     0.03100
C385        C  0.74248192  0.41708279  0.49305480     0.27900
C386        C  0.74868553  0.41011240  0.46927540    -0.24600
N387        N  0.69196907  0.37956563  0.44971130    -0.82000
H388        H  0.68560559  0.39386134  0.49529904     0.13700
C389        C  0.71462546  0.41107128  0.52940453     0.03100
N390        N  0.75946328  0.42986639  0.50765842    -0.80600
H391        H  0.76669280  0.41358971  0.46236058     0.18600
C392        C  0.73059514  0.39923506  0.54502919    -0.25400
C393        C  0.72357240  0.39302485  0.56869235     0.36600
C394        C  0.69999725  0.39840442  0.57679920    -0.19500
C395        C  0.68493053  0.41245551  0.56219824    -0.24700
C396        C  0.69211101  0.41901605  0.53858377     0.28000
H397        H  0.74793020  0.39317030  0.53820520     0.13700
N398        N  0.73985566  0.38020666  0.58419371    -0.82000
H399        H  0.66690967  0.41684612  0.56851395     0.18600
N400        N  0.67617311  0.43260327  0.52340503    -0.80600
H401        H  0.75645468  0.37745985  0.57549159     0.34200
H402        H  0.74326458  0.39110382  0.59911897     0.38700
H403        H  0.66026516  0.43687977  0.53275210     0.34200
H404        H  0.68472489  0.44883466  0.51935927     0.30900
H405        H  0.77533295  0.43322751  0.49786508     0.34200
H406        H  0.75186258  0.44655698  0.51169481     0.30900
H407        H  0.68822272  0.39019771  0.43460747     0.38700
H408        H  0.67563827  0.37735345  0.45906217     0.34200
C409        C  0.40929315  0.58840776  0.73053772    -0.19500
C410        C  0.42685428  0.60268243  0.74159635     0.36700
C411        C  0.44951398  0.60544099  0.73060284    -0.25500
C412        C  0.45474905  0.59462235  0.70828149     0.03100
C413        C  0.43718702  0.58001914  0.69726192     0.27900
C414        C  0.41466048  0.57678722  0.70874776    -0.24600
N415        N  0.42157460  0.61451704  0.76395489    -0.82000
H416        H  0.46298038  0.61641667  0.73934811     0.13700
C417        C  0.47851515  0.59930411  0.69660673     0.03100
N418        N  0.44203598  0.56918112  0.67418757    -0.80600
H419        H  0.40084359  0.56606040  0.70026640     0.18600
C420        C  0.49387563  0.58006951  0.69094775    -0.25400
C421        C  0.51716562  0.58404468  0.68142651     0.36600
C422        C  0.52534636  0.60781650  0.67785387    -0.19500
C423        C  0.50953263  0.62695975  0.68264036    -0.24700
C424        C  0.48623061  0.62296598  0.69191808     0.28000
H425        H  0.48782788  0.56190960  0.69442823     0.13700
N426        N  0.53249029  0.56406886  0.67545518    -0.82000
H427        H  0.51563064  0.64521703  0.67987214     0.18600
N428        N  0.47044349  0.64286494  0.69691489    -0.80600
H429        H  0.52377871  0.54786449  0.67929411     0.34200
H430        H  0.53543406  0.56446414  0.65675613     0.38700
H431        H  0.47891034  0.65909653  0.69268015     0.34200
H432        H  0.45559333  0.64143530  0.68546601     0.30900
H433        H  0.42722099  0.55907562  0.66859235     0.34200
H434        H  0.44419321  0.58300238  0.66154861     0.30900
H435        H  0.43419342  0.60883379  0.77671222     0.38700
H436        H  0.42397094  0.63292654  0.76130124     0.34200
C437        C  0.37112838  0.42602279  0.79566630    -0.19500
C438        C  0.35892700  0.44672559  0.80386106     0.36700
C439        C  0.36646108  0.46938011  0.79577666    -0.25500
C440        C  0.38598600  0.47186698  0.77973003     0.03100
C441        C  0.39940924  0.45143473  0.77292677     0.27900
C442        C  0.39187436  0.42859319  0.78107652    -0.24600
N443        N  0.33836204  0.44454542  0.81973904    -0.82000
H444        H  0.35638222  0.48518241  0.80116991     0.13700
C445        C  0.39006295  0.49587555  0.76884788     0.03100
N446        N  0.42035594  0.45393104  0.75764009    -0.80600
H447        H  0.40128897  0.41273065  0.77480357     0.18600
C448        C  0.39904926  0.51440019  0.78329869    -0.25400
C449        C  0.39633195  0.53844873  0.77638998     0.36600
C450        C  0.38452023  0.54416156  0.75458644    -0.19500
C451        C  0.37733641  0.52560909  0.73923307    -0.24700
C452        C  0.37994606  0.50152527  0.74623437     0.28000
H453        H  0.40661554  0.51022110  0.80082372     0.13700
N454        N  0.40436196  0.55675794  0.79250763    -0.82000
H455        H  0.36795004  0.52984507  0.72263365     0.18600
N456        N  0.37057480  0.48290604  0.73123125    -0.80600
H457        H  0.41673134  0.56750566  0.78315631     0.34200
H458        H  0.38956649  0.56735912  0.79748035     0.38700
H459        H  0.35217847  0.48614803  0.72867589     0.34200
H460        H  0.37920084  0.48403784  0.71438279     0.30900
H461        H  0.42846183  0.43723755  0.75475276     0.34200
H462        H  0.41464683  0.46006862  0.74075370     0.30900
H463        H  0.34440185  0.43719180  0.83601990     0.38700
H464        H  0.33122719  0.46142435  0.82384396     0.34200
C465        C  0.90203106  0.87349134  0.30153292    -0.19500
C466        C  0.90861304  0.88811501  0.32118627     0.36700
C467        C  0.93169069  0.88562518  0.33135782    -0.25500
C468        C  0.94784054  0.86813309  0.32290672     0.03100
C469        C  0.94093357  0.85286128  0.30394402     0.27900
C470        C  0.91817563  0.85583448  0.29331004    -0.24600
N471        N  0.89161587  0.90492523  0.33113582    -0.82000
H472        H  0.93698737  0.89703915  0.34620880     0.13700
C473        C  0.97201816  0.86588440  0.33398941     0.03100
N474        N  0.95710864  0.83444350  0.29557966    -0.80600
H475        H  0.91301468  0.84450960  0.27835348     0.18600
C476        C  0.97666158  0.84675710  0.34971574    -0.25400
C477        C  0.99977401  0.84314633  0.35949627     0.36600
C478        C  0.01897435  0.85874345  0.35277248    -0.19500
C479        C  0.01381812  0.87844311  0.33762498    -0.24700
C480        C  0.99057810  0.88215904  0.32822886     0.28000
H481        H  0.96213697  0.83451272  0.35426994     0.13700
N482        N  0.00370097  0.82352295  0.37592880    -0.82000
H483        H  0.02810538  0.89072682  0.33251397     0.18600
N484        N  0.98582259  0.90215069  0.31248891    -0.80600
H485        H  0.98795989  0.81340553  0.37818804     0.34200
H486        H  0.00749558  0.83086157  0.39284593     0.38700
H487        H  0.00132665  0.91257775  0.31014316     0.34200
H488        H  0.98153514  0.89530770  0.29547311     0.30900
H489        H  0.94917858  0.82453284  0.28175117     0.34200
H490        H  0.97224823  0.84286976  0.28802053     0.30900
H491        H  0.87704835  0.89514124  0.33811030     0.38700
H492        H  0.89917251  0.91417538  0.34563061     0.34200
C493        C  0.87918321  0.92088820  0.28077726    -0.19500
C494        C  0.89817242  0.92771022  0.26500041     0.36700
C495        C  0.90286357  0.95211748  0.26094196    -0.25500
C496        C  0.88875093  0.96986289  0.27213555     0.03100
C497        C  0.87049154  0.96312275  0.28871413     0.27900
C498        C  0.86599077  0.93870492  0.29292171    -0.24600
N499        N  0.91169174  0.91036446  0.25148318    -0.82000
H500        H  0.91649509  0.95725261  0.24775916     0.13700
C501        C  0.88934546  0.99474047  0.26275986     0.03100
N502        N  0.85519780  0.98106185  0.29952466    -0.80600
H503        H  0.85107259  0.93348067  0.30458835     0.18600
C504        C  0.87516560  0.99997988  0.24256524    -0.25400
C505        C  0.87035874  0.02365085  0.23577728     0.36600
C506        C  0.87992644  0.04260641  0.24960245    -0.19500
C507        C  0.89596090  0.03743050  0.26845310    -0.24700
C508        C  0.90081864  0.01351382  0.27520675     0.28000
H509        H  0.86667830  0.98551299  0.23274411     0.13700
N510        N  0.85514446  0.02774939  0.21522549    -0.82000
H511        H  0.90337607  0.05203149  0.27891097     0.18600
N512        N  0.91692012  0.00825900  0.29478245    -0.80600
H513        H  0.83778043  0.02184793  0.21977873     0.34200
H514        H  0.85390302  0.04592337  0.21088384     0.38700
H515        H  0.92401038  0.02410705  0.30182806     0.34200
H516        H  0.90697449  0.00022385  0.30871929     0.30900
H517        H  0.84188434  0.97306982  0.31034807     0.34200
H518        H  0.86576697  0.99134281  0.31108739     0.30900
H519        H  0.89969415  0.90002341  0.24143306     0.38700
H520        H  0.92064683  0.89917036  0.26362896     0.34200
C521        C  0.90431842  0.08880578  0.22999147    -0.19500
C522        C  0.92085878  0.10464896  0.24048782     0.36700
C523        C  0.94396066  0.10722164  0.23037174    -0.25500
C524        C  0.95084422  0.09429621  0.20969039     0.03100
C525        C  0.93443168  0.07797854  0.19938035     0.27900
C526        C  0.91131826  0.07527182  0.20979195    -0.24600
N527        N  0.91425355  0.11793915  0.26162817    -0.82000
H528        H  0.95658122  0.11948599  0.23863789     0.13700
C529        C  0.97512773  0.09854601  0.19893080     0.03100
N530        N  0.94111780  0.06466432  0.17814809    -0.80600
H531        H  0.89844610  0.06312105  0.20178970     0.18600
C532        C  0.99154524  0.07950131  0.19670988    -0.25400
C533        C  0.01530275  0.08332877  0.18831132     0.36600
C534        C  0.02273230  0.10682456  0.18185134    -0.19500
C535        C  0.00584071  0.12563617  0.18328524    -0.24700
C536        C  0.98220314  0.12175241  0.19169565     0.28000
H537        H  0.98599044  0.06167176  0.20222341     0.13700
N538        N  0.03163858  0.06338511  0.18614885    -0.82000
H539        H  0.01122448  0.14367524  0.17835171     0.18600
N540        N  0.96533885  0.14133577  0.19309278    -0.80600
H541        H  0.02250463  0.04722915  0.18904140     0.34200
H542        H  0.04409641  0.06470867  0.20017002     0.38700
H543        H  0.97338672  0.15730019  0.18725074     0.34200
H544        H  0.95134130  0.13773293  0.18107988     0.30900
H545        H  0.92701062  0.05344673  0.17289229     0.34200
H546        H  0.94377177  0.07696347  0.16407475     0.30900
H547        H  0.92639483  0.11357488  0.27533793     0.38700
H548        H  0.91619880  0.13617702  0.25768195     0.34200
C549        C  0.13057845  0.93050859  0.39017928    -0.19500
C550        C  0.13050573  0.94784166  0.37136501     0.36700
C551        C  0.13928641  0.97103749  0.37591116    -0.25500
C552        C  0.14815646  0.97733180  0.39869764     0.03100
C553        C  0.14824830  0.96018156  0.41742770     0.27900
C554        C  0.13931619  0.93707175  0.41304169    -0.24600
N555        N  0.12243330  0.94174295  0.34751799    -0.82000
H556        H  0.13924249  0.98434604  0.36158915     0.13700
C557        C  0.15742784  0.00194018  0.40267842     0.03100
N558        N  0.15789591  0.96617843  0.44069159    -0.80600
H559        H  0.13956754  0.92396794  0.42753889     0.18600
C560        C  0.14641084  0.01651908  0.42024938    -0.25400
C561        C  0.15430607  0.04013844  0.42408742     0.36600
C562        C  0.17390876  0.04908953  0.41043483    -0.19500
C563        C  0.18503507  0.03442209  0.39304270    -0.24700
C564        C  0.17697076  0.01096620  0.38894910     0.28000
H565        H  0.13124634  0.00958757  0.43058868     0.13700
N566        N  0.14212508  0.05526652  0.44125897    -0.82000
H567        H  0.20013709  0.04140654  0.38266411     0.18600
N568        N  0.18856044  0.99625267  0.37097951    -0.80600
H569        H  0.12802818  0.04599071  0.44976980     0.34200
H570        H  0.13428006  0.06941043  0.43166096     0.38700
H571        H  0.20245253  0.00568322  0.36231295     0.34200
H572        H  0.19662936  0.98181291  0.37993504     0.30900
H573        H  0.15662740  0.95157497  0.45252040     0.34200
H574        H  0.17630472  0.96970348  0.43833149     0.30900
H575        H  0.10370402  0.93961250  0.34842510     0.38700
H576        H  0.12555404  0.95589408  0.33545825     0.34200
C577        C  0.17726257  0.08596366  0.36956510    -0.19500
C578        C  0.19371247  0.08834224  0.35003765     0.36700
C579        C  0.18479812  0.09022431  0.32651945    -0.25500
C580        C  0.15994462  0.08953869  0.32196902     0.03100
C581        C  0.14360790  0.08525176  0.34136486     0.27900
C582        C  0.15258540  0.08332188  0.36491919    -0.24600
N583        N  0.21941561  0.08936246  0.35338002    -0.82000
H584        H  0.19737209  0.09308993  0.31166895     0.13700
C585        C  0.15182564  0.09588976  0.29732067     0.03100
N586        N  0.11791108  0.08382981  0.33814602    -0.80600
H587        H  0.13999886  0.08124351  0.37989255     0.18600
C588        C  0.14202208  0.07832033  0.28230522    -0.25400
C589        C  0.13482914  0.08394594  0.25866176     0.36600
C590        C  0.13763834  0.10761521  0.24970357    -0.19500
C591        C  0.14780122  0.12504504  0.26483279    -0.24700
C592        C  0.15479528  0.11945187  0.28853431     0.28000
H593        H  0.14003386  0.06012656  0.28896242     0.13700
N594        N  0.12514309  0.06540336  0.24375805    -0.82000
H595        H  0.15007671  0.14322989  0.25828234     0.18600
N596        N  0.16500495  0.13758181  0.30377708    -0.80600
H597        H  0.13800114  0.05172728  0.24235373     0.34200
H598        H  0.10987975  0.05838711  0.25246311     0.38700
H599        H  0.16623687  0.15392844  0.29456148     0.34200
H600        H  0.15309345  0.14025859  0.31828806     0.30900
H601        H  0.11005690  0.09815327  0.34752145     0.34200
H602        H  0.11305035  0.08590270  0.32011333     0.30900
H603        H  0.22403160  0.08673934  0.37146004     0.38700
H604        H  0.22701463  0.07494781  0.34397431     0.34200
C605        C  0.22935487  0.06563180  0.57817622    -0.19500
C606        C  0.24110451  0.07776181  0.55906504     0.36700
C607        C  0.23276143  0.07497666  0.53541355    -0.25500
C608        C  0.21279510  0.06048244  0.53055372     0.03100
C609        C  0.20221222  0.04677293  0.54927859     0.27900
C610        C  0.21078963  0.04934690  0.57308665    -0.24600
N611        N  0.26035107  0.09422818  0.56409080    -0.82000
H612        H  0.24087420  0.08533831  0.52086500     0.13700
C613        C  0.20182410  0.06272558  0.50637453     0.03100
N614        N  0.18230289  0.03114633  0.54420943    -0.80600
H615        H  0.20167953  0.04025130  0.58789571     0.18600
C616        C  0.21035364  0.04839472  0.48737050    -0.25400
C617        C  0.20531994  0.05436113  0.46315638     0.36600
C618        C  0.19092843  0.07465746  0.45812361    -0.19500
C619        C  0.18113867  0.08798410  0.47732306    -0.24700
C620        C  0.18659513  0.08235324  0.50139709     0.28000
H621        H  0.22243052  0.03363827  0.49136847     0.13700
N622        N  0.21619668  0.04096944  0.44377336    -0.82000
H623        H  0.17025779  0.10366973  0.47340937     0.18600
N624        N  0.17821117  0.09747793  0.52074348    -0.80600
H625        H  0.22632651  0.02666201  0.45057105     0.34200
H626        H  0.22831244  0.05230112  0.43475591     0.38700
H627        H  0.16783459  0.11162057  0.51399068     0.34200
H628        H  0.16675638  0.08723140  0.53175828     0.30900
H629        H  0.17669971  0.02225811  0.55994941     0.34200
H630        H  0.16779283  0.04177745  0.53868794     0.30900
H631        H  0.27470658  0.08431440  0.57111928     0.38700
H632        H  0.26669187  0.10220018  0.54812741     0.34200
C633        C  0.34234865  0.21418303  0.84119218    -0.19500
C634        C  0.36487541  0.22549185  0.84522236     0.36700
C635        C  0.36823942  0.24958444  0.83816208    -0.25500
C636        C  0.34981066  0.26274330  0.82696473     0.03100
C637        C  0.32761589  0.25130198  0.82223440     0.27900
C638        C  0.32420371  0.22726265  0.82926842    -0.24600
N639        N  0.38435480  0.21258806  0.85633783    -0.82000
H640        H  0.38545560  0.25816840  0.84129274     0.13700
C641        C  0.35383703  0.28851074  0.82048756     0.03100
N642        N  0.30839506  0.26427262  0.81072429    -0.80600
H643        H  0.30693151  0.21890792  0.82587562     0.18600
C644        C  0.34986572  0.29622836  0.79665507    -0.25400
C645        C  0.35133715  0.32062097  0.79031508     0.36600
C646        C  0.35724015  0.33772383  0.80805390    -0.19500
C647        C  0.36264980  0.32997810  0.83153084    -0.24700
C648        C  0.36076658  0.30555827  0.83802049     0.28000
H649        H  0.34510293  0.28318233  0.78303610     0.13700
N650        N  0.34638931  0.32823734  0.76599049    -0.82000
H651        H  0.36696003  0.34317368  0.84516034     0.18600
N652        N  0.36490216  0.29816225  0.86256091    -0.80600
H653        H  0.34213597  0.31354095  0.75514286     0.34200
H654        H  0.36225599  0.33564410  0.75887731     0.38700
H655        H  0.36987342  0.31280097  0.87315993     0.34200
H656        H  0.34852640  0.29184597  0.86960721     0.30900
H657        H  0.29336404  0.25325942  0.80831639     0.34200
H658        H  0.30299215  0.27800558  0.82240999     0.30900
H659        H  0.38969932  0.19905930  0.84438994     0.38700
H660        H  0.39936001  0.22369121  0.85855074     0.34200
C661        C  0.29435491  0.10252417  0.78314092    -0.19500
C662        C  0.29608225  0.07855889  0.77474789     0.36700
C663        C  0.28775802  0.07282308  0.75145709    -0.25500
C664        C  0.27735529  0.09031257  0.73656601     0.03100
C665        C  0.27560364  0.11414795  0.74486094     0.27900
C666        C  0.28402671  0.11996163  0.76799484    -0.24600
N667        N  0.30567357  0.05999033  0.79000845    -0.82000
H668        H  0.28878155  0.05449251  0.74510063     0.13700
C669        C  0.26734126  0.08351980  0.71268666     0.03100
N670        N  0.26527729  0.13238780  0.72967352    -0.80600
H671        H  0.28265226  0.13833856  0.77413665     0.18600
C672        C  0.24264465  0.08696665  0.70869509    -0.25400
C673        C  0.23274252  0.08381221  0.68568127     0.36600
C674        C  0.24787250  0.07722345  0.66613808    -0.19500
C675        C  0.27225143  0.07197330  0.67042980    -0.24700
C676        C  0.28218235  0.07508669  0.69362721     0.28000
H677        H  0.23119106  0.09286705  0.72350654     0.13700
N678        N  0.20743871  0.08797364  0.68183402    -0.82000
H679        H  0.28384023  0.06691072  0.65541646     0.18600
N680        N  0.30739290  0.07069119  0.69767158    -0.80600
H681        H  0.19976445  0.07172644  0.67655870     0.34200
H682        H  0.19885207  0.09292640  0.69797284     0.38700
H683        H  0.31574316  0.06449134  0.68185809     0.34200
H684        H  0.31545747  0.08708863  0.70180493     0.30900
H685        H  0.26510787  0.14894303  0.73847888     0.34200
H686        H  0.27652313  0.13432290  0.71451758     0.30900
H687        H  0.29377636  0.05785700  0.80462848     0.38700
H688        H  0.30604145  0.04357257  0.78093554     0.34200
C689        C  0.16737534  0.88371808  0.16025996    -0.19500
C690        C  0.17917080  0.89601039  0.17893051     0.36700
C691        C  0.17102794  0.89337714  0.20293591    -0.25500
C692        C  0.15126128  0.87860646  0.20851205     0.03100
C693        C  0.13860611  0.86733649  0.18970179     0.27900
C694        C  0.14687882  0.86992815  0.16572958    -0.24600
N695        N  0.20026556  0.90996727  0.17376236    -0.82000
H696        H  0.18077524  0.90205928  0.21737567     0.13700
C697        C  0.14533062  0.87326214  0.23415229     0.03100
N698        N  0.11779965  0.85284949  0.19511251    -0.80600
H699        H  0.13790877  0.86038521  0.15133121     0.18600
C700        C  0.12780035  0.88682333  0.24627193    -0.25400
C701        C  0.12153237  0.88188341  0.27053711     0.36600
C702        C  0.13277480  0.86242801  0.28281805    -0.19500
C703        C  0.15050631  0.84905953  0.27039143    -0.24700
C704        C  0.15689308  0.85429746  0.24629457     0.28000
H705        H  0.11908333  0.90143071  0.23675302     0.13700
N706        N  0.10376758  0.89656542  0.28250253    -0.82000
H707        H  0.15945465  0.83431799  0.27944280     0.18600
N708        N  0.17518155  0.84047532  0.23407002    -0.80600
H709        H  0.09638839  0.90903063  0.27047912     0.34200
H710        H  0.11271717  0.90656055  0.29563571     0.38700
H711        H  0.18225440  0.82740547  0.24561126     0.34200
H712        H  0.16692983  0.83131183  0.21990770     0.30900
H713        H  0.11039727  0.84606303  0.17922011     0.34200
H714        H  0.12354462  0.83805627  0.20520794     0.30900
H715        H  0.19704231  0.92747633  0.17966657     0.38700
H716        H  0.21456103  0.90294745  0.18378901     0.34200
C717        C  0.17646402  0.92431339  0.12265876    -0.19500
C718        C  0.19373121  0.94276189  0.12178602     0.36700
C719        C  0.18631719  0.96671822  0.12393657    -0.25500
C720        C  0.16184417  0.97247715  0.12690165     0.03100
C721        C  0.14448062  0.95405104  0.12785438     0.27900
C722        C  0.15199968  0.93007618  0.12575101    -0.24600
N723        N  0.21884327  0.93711623  0.11944749    -0.82000
H724        H  0.19970484  0.98086241  0.12359450     0.13700
C725        C  0.15475353  0.99775440  0.13060581     0.03100
N726        N  0.11936334  0.95980518  0.13104891    -0.80600
H727        H  0.13880835  0.91577126  0.12632841     0.18600
C728        C  0.14503371  0.01102228  0.11140392    -0.25400
C729        C  0.13756413  0.03495558  0.11471641     0.36600
C730        C  0.13935527  0.04537540  0.13785216    -0.19500
C731        C  0.14924895  0.03202681  0.15693594    -0.24700
C732        C  0.15716813  0.00838076  0.15348850     0.28000
H733        H  0.14324414  0.00263251  0.09386700     0.13700
N734        N  0.12728290  0.04828147  0.09503300    -0.82000
H735        H  0.15078493  0.04013482  0.17464329     0.18600
N736        N  0.16756867  0.99503160  0.17311410    -0.80600
H737        H  0.12618009  0.03756823  0.07960464     0.34200
H738        H  0.13919585  0.06218053  0.09068403     0.38700
H739        H  0.16835410  0.00555363  0.18869853     0.34200
H740        H  0.15603151  0.98072051  0.17711433     0.30900
H741        H  0.10893461  0.94419860  0.13111817     0.34200
H742        H  0.11727171  0.96751757  0.14814500     0.30900
H743        H  0.22551760  0.94581203  0.10401421     0.38700
H744        H  0.22774584  0.94409210  0.13445553     0.34200
C745        C  0.26609242  0.91564372  0.91164268    -0.19500
C746        C  0.29030887  0.92334407  0.90990627     0.36700
C747        C  0.29538823  0.94762819  0.90659787    -0.25500
C748        C  0.27681727  0.96458638  0.90483137     0.03100
C749        C  0.25245731  0.95698229  0.90639255     0.27900
C750        C  0.24745274  0.93257547  0.90997941    -0.24600
N751        N  0.31010828  0.90705383  0.91239845    -0.82000
H752        H  0.31404849  0.95336599  0.90540808     0.13700
C753        C  0.28372608  0.98982523  0.90046373     0.03100
N754        N  0.23246575  0.97325312  0.90392844    -0.80600
H755        H  0.22887238  0.92667340  0.91137264     0.18600
C756        C  0.29171652  0.99639746  0.87734063    -0.25400
C757        C  0.29994465  0.01971597  0.87242204     0.36600
C758        C  0.29981192  0.03706862  0.89114891    -0.19500
C759        C  0.29172081  0.03027347  0.91438358    -0.24700
C760        C  0.28388535  0.00675628  0.91927368     0.28000
H761        H  0.29179443  0.98308500  0.86310325     0.13700
N762        N  0.30792535  0.02577487  0.84835875    -0.82000
H763        H  0.29170191  0.04329822  0.92887031     0.18600
N764        N  0.27673217  0.99981583  0.94334296    -0.80600
H765        H  0.30470083  0.01163935  0.83644413     0.34200
H766        H  0.32667215  0.02776120  0.84886345     0.38700
H767        H  0.27852237  0.01421330  0.95523960     0.34200
H768        H  0.25837172  0.99557576  0.94303095     0.30900
H769        H  0.22302300  0.97336019  0.92038134     0.34200
H770        H  0.23819199  0.99078430  0.90071108     0.30900
H771        H  0.30784771  0.89730996  0.92856426     0.38700
H772        H  0.30996367  0.89528762  0.89800099     0.34200
C773        C  0.23911366  0.89596954  0.95748140    -0.19500
C774        C  0.25350541  0.91110962  0.97174318     0.36700
C775        C  0.24498087  0.91867205  0.99451824    -0.25500
C776        C  0.22302002  0.91003506  0.00406767     0.03100
C777        C  0.20783374  0.89638280  0.98894584     0.27900
C778        C  0.21583064  0.89014065  0.96568184    -0.24600
N779        N  0.27745902  0.91729099  0.96423094    -0.82000
H780        H  0.25655002  0.92963788  0.00564719     0.13700
C781        C  0.21791131  0.91158091  0.03062990     0.03100
N782        N  0.18510738  0.88732451  0.99777838    -0.80600
H783        H  0.20453629  0.87884184  0.95459499     0.18600
C784        C  0.19464085  0.91786208  0.03887345    -0.25400
C785        C  0.18688061  0.91208331  0.06250411     0.36600
C786        C  0.20328555  0.90137476  0.07863663    -0.19500
C787        C  0.22732091  0.89803591  0.07138115    -0.24700
C788        C  0.23480645  0.90268518  0.04752933     0.28000
H789        H  0.18183553  0.92529800  0.02617955     0.13700
N790        N  0.16206497  0.91540168  0.06949452    -0.82000
H791        H  0.23988348  0.88997536  0.08395334     0.18600
N792        N  0.25902914  0.89675365  0.04012596    -0.80600
H793        H  0.15453153  0.89844204  0.07238443     0.34200
H794        H  0.15233635  0.92331898  0.05545148     0.38700
H795        H  0.26922082  0.89102856  0.05488412     0.34200
H796        H  0.25805948  0.88220381  0.02829928     0.30900
H797        H  0.17602212  0.87804129  0.98422927     0.34200
H798        H  0.18877418  0.87482703  0.01140493     0.30900
H799        H  0.28947773  0.91103058  0.97731394     0.38700
H800        H  0.27868081  0.93597874  0.96365670     0.34200
C801        C  0.31976795  0.20059724  0.11613361    -0.19500
C802        C  0.31295078  0.17678636  0.11134882     0.36700
C803        C  0.28863896  0.16997678  0.11396891    -0.25500
C804        C  0.27107283  0.18654457  0.12164300     0.03100
C805        C  0.27769733  0.21065925  0.12525610     0.27900
C806        C  0.30197471  0.21739604  0.12254622    -0.24600
N807        N  0.33080501  0.15914671  0.10541084    -0.82000
H808        H  0.28369284  0.15139537  0.11126652     0.13700
C809        C  0.24633009  0.17814033  0.12783533     0.03100
N810        N  0.25981130  0.22803377  0.13231464    -0.80600
H811        H  0.30724343  0.23570520  0.12630440     0.18600
C812        C  0.23771291  0.18112402  0.15155184    -0.25400
C813        C  0.21460493  0.17330826  0.15843886     0.36600
C814        C  0.19955769  0.16208733  0.14131642    -0.19500
C815        C  0.20835114  0.15903610  0.11753434    -0.24700
C816        C  0.23150008  0.16703787  0.11061800     0.28000
H817        H  0.24914533  0.18942602  0.16494543     0.13700
N818        N  0.20677849  0.17653903  0.18296795    -0.82000
H819        H  0.19704680  0.15060471  0.10413956     0.18600
N820        N  0.23992465  0.16416028  0.08614762    -0.80600
H821        H  0.21902023  0.16775817  0.19425765     0.34200
H822        H  0.20737171  0.19485076  0.18688398     0.38700
H823        H  0.22687554  0.15561134  0.07570829     0.34200
H824        H  0.24225372  0.18128195  0.07874813     0.30900
H825        H  0.26766381  0.24491326  0.13448736     0.34200
H826        H  0.24755266  0.22961603  0.11812418     0.30900
H827        H  0.32629884  0.15166768  0.08873677     0.38700
H828        H  0.33001262  0.14556876  0.11846809     0.34200
C829        C  0.36188529  0.19621147  0.07801250    -0.19500
C830        C  0.34552664  0.20604171  0.06133289     0.36700
C831        C  0.34319822  0.19549828  0.03842358    -0.25500
C832        C  0.35711374  0.17546731  0.03177881     0.03100
C833        C  0.37411784  0.16614782  0.04819575     0.27900
C834        C  0.37641157  0.17672735  0.07112465    -0.24600
N835        N  0.33151307  0.22679026  0.06773099    -0.82000
H836        H  0.33047666  0.20291571  0.02562756     0.13700
C837        C  0.35328255  0.16438601  0.00767140     0.03100
N838        N  0.38856038  0.14569353  0.04172315    -0.80600
H839        H  0.38899442  0.16930650  0.08403289     0.18600
C840        C  0.37230266  0.16351612  0.99078604    -0.25400
C841        C  0.36872851  0.15471224  0.96722572     0.36600
C842        C  0.34548309  0.14689399  0.96030478    -0.19500
C843        C  0.32678293  0.14683258  0.97768126    -0.24700
C844        C  0.33045119  0.15543455  0.00122982     0.28000
H845        H  0.38989734  0.17016919  0.99589145     0.13700
N846        N  0.38859325  0.15377984  0.95036706    -0.82000
H847        H  0.30896558  0.14069566  0.97270389     0.18600
N848        N  0.31099428  0.15541322  0.01860331    -0.80600
H849        H  0.40432555  0.16038867  0.95824168     0.34200
H850        H  0.39187079  0.13573522  0.94645157     0.38700
H851        H  0.29530894  0.14837502  0.01102346     0.34200
H852        H  0.31583285  0.14388659  0.03270568     0.30900
H853        H  0.40022395  0.14114908  0.05578476     0.34200
H854        H  0.37690043  0.13115279  0.03953532     0.30900
H855        H  0.34352416  0.24094404  0.07047737     0.38700
H856        H  0.32034893  0.23187033  0.05344755     0.34200
C857        C  0.40817691  0.21531453  0.10275557    -0.19500
C858        C  0.42781750  0.20408035  0.11418221     0.36700
C859        C  0.45134655  0.21184444  0.10897769    -0.25500
C860        C  0.45553853  0.23076081  0.09276625     0.03100
C861        C  0.43613444  0.24049915  0.07959490     0.27900
C862        C  0.41246962  0.23250416  0.08463468    -0.24600
N863        N  0.42358447  0.18585402  0.13215544    -0.82000
H864        H  0.46636627  0.20433810  0.11891915     0.13700
C865        C  0.47941216  0.24259865  0.09368077     0.03100
N866        N  0.44044754  0.25890130  0.06183120    -0.80600
H867        H  0.39727585  0.24102028  0.07585125     0.18600
C868        C  0.49908336  0.23298709  0.08082712    -0.25400
C869        C  0.52290371  0.23991281  0.08626147     0.36600
C870        C  0.52683999  0.25696399  0.10460586    -0.19500
C871        C  0.50704472  0.26755621  0.11633643    -0.24700
C872        C  0.48337128  0.26046811  0.11117697     0.28000
H873        H  0.49593358  0.21891985  0.06776964     0.13700
N874        N  0.54306634  0.22857210  0.07442119    -0.82000
H875        H  0.51020776  0.28031918  0.13069996     0.18600
N876        N  0.46344339  0.26980419  0.12509227    -0.80600
H877        H  0.53708015  0.21636777  0.06148746     0.34200
H878        H  0.55237287  0.21860819  0.08741128     0.38700
H879        H  0.46950342  0.28202634  0.13796892     0.34200
H880        H  0.45234037  0.27942921  0.11335234     0.30900
H881        H  0.42426614  0.26401478  0.05369968     0.34200
H882        H  0.44698284  0.27404212  0.07071016     0.30900
H883        H  0.41552600  0.17130915  0.12352285     0.38700
H884        H  0.43991572  0.17962180  0.13915403     0.34200
C885        C  0.73605991  0.30838625  0.14265919    -0.19500
C886        C  0.72221013  0.29313056  0.15795265     0.36700
C887        C  0.69880967  0.28633204  0.15102758    -0.25500
C888        C  0.68862825  0.29436509  0.12930096     0.03100
C889        C  0.70220798  0.30961243  0.11407742     0.27900
C890        C  0.72564693  0.31649002  0.12090601    -0.24600
N891        N  0.73172850  0.28456547  0.18050346    -0.82000
H892        H  0.68820191  0.27492082  0.16290846     0.13700
C893        C  0.66353458  0.28689811  0.12321215     0.03100
N894        N  0.69224400  0.31783540  0.09160448    -0.80600
H895        H  0.73588847  0.32813771  0.10896041     0.18600
C896        C  0.64559835  0.30437694  0.11948370    -0.25400
C897        C  0.62115640  0.29791313  0.11691220     0.36600
C898        C  0.61463575  0.27351552  0.11798516    -0.19500
C899        C  0.63266213  0.25603720  0.12046508    -0.24700
C900        C  0.65704437  0.26243349  0.12286565     0.28000
H901        H  0.65051722  0.32316134  0.11980146     0.13700
N902        N  0.60286279  0.31603463  0.11442900    -0.82000
H903        H  0.62753549  0.23730830  0.12132777     0.18600
N904        N  0.67521122  0.24421086  0.12554471    -0.80600
H905        H  0.61065009  0.33309534  0.11396336     0.34200
H906        H  0.59188382  0.31541049  0.12988049     0.38700
H907        H  0.66745756  0.22714291  0.12509846     0.34200
H908        H  0.68679721  0.24538489  0.11057230     0.30900
H909        H  0.70446689  0.32899267  0.08249090     0.34200
H910        H  0.68971149  0.30283808  0.08063702     0.30900
H911        H  0.73294670  0.29926844  0.19210090     0.38700
H912        H  0.71977368  0.27253728  0.18879725     0.34200
C913        C  0.84750015  0.24730919  0.18608427    -0.19500
C914        C  0.87046045  0.23665676  0.18203023     0.36700
C915        C  0.87476494  0.21307171  0.19019276    -0.25500
C916        C  0.85683612  0.20008600  0.20253699     0.03100
C917        C  0.83391120  0.21045382  0.20618233     0.27900
C918        C  0.82952837  0.23385171  0.19802258    -0.24600
N919        N  0.88946306  0.24979638  0.17012282    -0.82000
H920        H  0.89237539  0.20498364  0.18751675     0.13700
C921        C  0.86220995  0.17593147  0.21246760     0.03100
N922        N  0.81512654  0.19709526  0.21821275    -0.80600
H923        H  0.81180775  0.24156145  0.20102633     0.18600
C924        C  0.86013633  0.17230920  0.23748936    -0.25400
C925        C  0.86207010  0.14941462  0.24764418     0.36600
C926        C  0.86637751  0.12951011  0.23239029    -0.19500
C927        C  0.86992446  0.13327414  0.20749770    -0.24700
C928        C  0.86766706  0.15633907  0.19731134     0.28000
H929        H  0.85638279  0.18742094  0.24921704     0.13700
N930        N  0.85968234  0.14716195  0.27346187    -0.82000
H931        H  0.87302793  0.11799341  0.19582122     0.18600
N932        N  0.86984160  0.15978762  0.17161862    -0.80600
H933        H  0.84174126  0.15093017  0.27806490     0.34200
H934        H  0.86348899  0.12982326  0.27946587     0.38700
H935        H  0.87382375  0.14355248  0.16305367     0.34200
H936        H  0.85300244  0.16530242  0.16524868     0.30900
H937        H  0.79936022  0.20732661  0.21967776     0.34200
H938        H  0.81099116  0.18239099  0.20733510     0.30900
H939        H  0.89442126  0.26382177  0.18154737     0.38700
H940        H  0.90481056  0.23906369  0.16794265     0.34200
C941        C  0.80083007  0.35449014  0.25201476    -0.19500
C942        C  0.77940274  0.34563369  0.26294484     0.36700
C943        C  0.77411922  0.35144249  0.28716982    -0.25500
C944        C  0.78967131  0.36588653  0.30064850     0.03100
C945        C  0.81085902  0.37490110  0.28985894     0.27900
C946        C  0.81618644  0.36921748  0.26564482    -0.24600
N947        N  0.76298775  0.33098306  0.24947005    -0.82000
H948        H  0.75785061  0.34456671  0.29569394     0.13700
C949        C  0.78390965  0.37053163  0.32639778     0.03100
N950        N  0.82699310  0.38953529  0.30366398    -0.80600
H951        H  0.83264549  0.37606072  0.25749807     0.18600
C952        C  0.79512445  0.35660038  0.34417771    -0.25400
C953        C  0.78822561  0.35852751  0.36860075     0.36600
C954        C  0.76958965  0.37456046  0.37525224    -0.19500
C955        C  0.75933674  0.38945773  0.35758164    -0.24700
C956        C  0.76643854  0.38766955  0.33316311     0.28000
H957        H  0.80880911  0.34371391  0.33884952     0.13700
N958        N  0.79971138  0.34394891  0.38665170    -0.82000
H959        H  0.74492333  0.40163034  0.36259994     0.18600
N960        N  0.75551558  0.40262606  0.31508512    -0.80600
H961        H  0.81295903  0.33303731  0.37878319     0.34200
H962        H  0.80861504  0.35547263  0.39847153     0.38700
H963        H  0.74287057  0.41417712  0.32300693     0.34200
H964        H  0.76908285  0.41347998  0.30769629     0.30900
H965        H  0.84194171  0.39454944  0.29317166     0.34200
H966        H  0.81783118  0.40534374  0.30809658     0.30900
H967        H  0.75582677  0.34161833  0.23566258     0.38700
H968        H  0.74841418  0.32563891  0.26032589     0.34200
C969        C  0.07533501  0.20324324  0.95278988    -0.19500
C970        C  0.05988052  0.18452741  0.96030052     0.36700
C971        C  0.06201309  0.17500918  0.98384029    -0.25500
C972        C  0.07968699  0.18352202  0.99966977     0.03100
C973        C  0.09534824  0.20197718  0.99203371     0.27900
C974        C  0.09298965  0.21166505  0.96868308    -0.24600
N975        N  0.04263032  0.17483997  0.94375443    -0.82000
H976        H  0.05019994  0.16063706  0.98973983     0.13700
C977        C  0.08206044  0.17285597  0.02415518     0.03100
N978        N  0.11374858  0.21058112  0.00798026    -0.80600
H979        H  0.10494776  0.22589368  0.96274576     0.18600
C980        C  0.09945779  0.15506671  0.02809192    -0.25400
C981        C  0.10363659  0.14578758  0.05141449     0.36600
C982        C  0.09037473  0.15493938  0.07144402    -0.19500
C983        C  0.07234095  0.17225588  0.06710410    -0.24700
C984        C  0.06810825  0.18129887  0.04372062     0.28000
H985        H  0.10999158  0.14857244  0.01286251     0.13700
N986        N  0.12140640  0.12727523  0.05469647    -0.82000
H987        H  0.06188563  0.17933268  0.08210047     0.18600
N988        N  0.04991628  0.19926763  0.03978272    -0.80600
H989        H  0.12988608  0.12309988  0.03827789     0.34200
H990        H  0.11229216  0.11178374  0.06025598     0.38700
H991        H  0.04105563  0.20343556  0.05599362     0.34200
H992        H  0.05861359  0.21493097  0.03404173     0.30900
H993        H  0.12401632  0.22393438  0.99949647     0.34200
H994        H  0.10514168  0.21865896  0.02274644     0.30900
H995        H  0.05224728  0.16715172  0.92939925     0.38700
H996        H  0.03277393  0.16102021  0.95196858     0.34200
C997        C  0.23446228  0.15522336  0.89334424    -0.19500
C998        C  0.22573027  0.15523723  0.91754834     0.36700
C999        C  0.20231274  0.16391140  0.92262459    -0.25500
C1000       C  0.18766846  0.17299963  0.90421095     0.03100
C1001       C  0.19626965  0.17312625  0.88018696     0.27900
C1002       C  0.21950422  0.16427991  0.87499952    -0.24600
N1003       N  0.24076177  0.14703541  0.93697321    -0.82000
H1004       H  0.19562418  0.16412094  0.94109034     0.13700
C1005       C  0.16366322  0.18333370  0.91018639     0.03100
N1006       N  0.18134653  0.18240990  0.86116901    -0.80600
H1007       H  0.22588909  0.16436088  0.85643383     0.18600
C1008       C  0.16101946  0.20830322  0.91041854    -0.25400
C1009       C  0.13828007  0.21900607  0.91316102     0.36600
C1010       C  0.11754591  0.20434286  0.91574041    -0.19500
C1011       C  0.12035224  0.17934791  0.91685114    -0.24700
C1012       C  0.14325274  0.16865823  0.91385296     0.28000
H1013       H  0.17674534  0.21958937  0.90782324     0.13700
N1014       N  0.13697429  0.24475352  0.91313724    -0.82000
H1015       H  0.10446692  0.16813082  0.91851333     0.18600
N1016       N  0.14576607  0.14301517  0.91355179    -0.80600
H1017       H  0.14141784  0.25071878  0.89572848     0.34200
H1018       H  0.11960539  0.25091686  0.91714689     0.38700
H1019       H  0.12902591  0.13480465  0.91645937     0.34200
H1020       H  0.15145368  0.13808552  0.89619746     0.30900
H1021       H  0.19036278  0.18146831  0.84451829     0.34200
H1022       H  0.16624390  0.17128346  0.85988153     0.30900
H1023       H  0.25526309  0.15892418  0.93826157     0.38700
H1024       H  0.23147662  0.14790427  0.95348874     0.34200
C1025       C  0.86599749  0.29253933  0.94656795    -0.19500
C1026       C  0.88001289  0.31054964  0.95751036     0.36700
C1027       C  0.87700180  0.31522287  0.98231553    -0.25500
C1028       C  0.85989635  0.30259488  0.99610583     0.03100
C1029       C  0.84584261  0.28467798  0.98519743     0.27900
C1030       C  0.84913163  0.27974844  0.96052480    -0.24600
N1031       N  0.89684000  0.32430299  0.94327814    -0.82000
H1032       H  0.88755820  0.32913554  0.99083032     0.13700
C1033       C  0.85600946  0.30898389  0.02174922     0.03100
N1034       N  0.82825013  0.27167859  0.99925651    -0.80600
H1035       H  0.83865246  0.26575698  0.95211991     0.18600
C1036       C  0.83493073  0.32125267  0.02821830    -0.25400
C1037       C  0.83005919  0.32735398  0.05237206     0.36600
C1038       C  0.84647515  0.32032570  0.07070171    -0.19500
C1039       C  0.86787554  0.30833501  0.06389866    -0.24700
C1040       C  0.87282266  0.30268968  0.03959457     0.28000
H1041       H  0.82227235  0.32622899  0.01422155     0.13700
N1042       N  0.80844363  0.34052560  0.05814724    -0.82000
H1043       H  0.88071791  0.30304563  0.07758483     0.18600
N1044       N  0.89469010  0.29037398  0.03295448    -0.80600
H1045       H  0.79789185  0.34306994  0.04275270     0.34200
H1046       H  0.81369775  0.35762120  0.06371072     0.38700
H1047       H  0.90525683  0.28713387  0.04819930     0.34200
H1048       H  0.88988276  0.27361385  0.02610379     0.30900
H1049       H  0.81924362  0.25926422  0.98846825     0.34200
H1050       H  0.83753509  0.26182016  0.01233977     0.30900
H1051       H  0.88698194  0.33400388  0.93050696     0.38700
H1052       H  0.90568196  0.33686108  0.95402856     0.34200
C1053       C  0.03064872  0.22802414  0.92735544    -0.19500
C1054       C  0.02606587  0.24777664  0.94259510     0.36700
C1055       C  0.00224372  0.25653907  0.94514189    -0.25500
C1056       C  0.98309069  0.24600984  0.93254701     0.03100
C1057       C  0.98759373  0.22565732  0.91810398     0.27900
C1058       C  0.01126359  0.21678494  0.91585752    -0.24600
N1059       N  0.04583631  0.26008204  0.95369537    -0.82000
H1060       H  0.99881041  0.27247762  0.95577885     0.13700
C1061       C  0.95946318  0.25859823  0.93088859     0.03100
N1062       N  0.96848842  0.21541931  0.90404913    -0.80600
H1063       H  0.01494397  0.20212183  0.90354659     0.18600
C1064       C  0.95701290  0.27663883  0.91338694    -0.25400
C1065       C  0.93423679  0.28603370  0.90754176     0.36600
C1066       C  0.91337178  0.27695820  0.91919837    -0.19500
C1067       C  0.91603095  0.26042505  0.93823481    -0.24700
C1068       C  0.93897440  0.25116614  0.94425032     0.28000
H1069       H  0.97285768  0.28261688  0.90346359     0.13700
N1070       N  0.93206892  0.30420696  0.88918588    -0.82000
H1071       H  0.90010160  0.25361269  0.94740394     0.18600
N1072       N  0.94150240  0.23411333  0.96360914    -0.80600
H1073       H  0.94905076  0.30881310  0.88222451     0.34200
H1074       H  0.92512548  0.31959419  0.89745872     0.38700
H1075       H  0.92476021  0.23080695  0.97182833     0.34200
H1076       H  0.94729496  0.21786669  0.95625453     0.30900
H1077       H  0.97501096  0.20129588  0.89345675     0.34200
H1078       H  0.95588105  0.20795832  0.91600675     0.30900
H1079       H  0.05347970  0.24836954  0.96627845     0.38700
H1080       H  0.03957003  0.27488592  0.96345738     0.34200
C1081       C  0.79899449  0.53621722  0.38480588    -0.19500
C1082       C  0.79494915  0.52790769  0.40872374     0.36700
C1083       C  0.78717517  0.50420654  0.41261969    -0.25500
C1084       C  0.78353864  0.48858861  0.39323976     0.03100
C1085       C  0.78796393  0.49653853  0.36943057     0.27900
C1086       C  0.79570765  0.52026660  0.36543686    -0.24600
N1087       N  0.79898476  0.54341993  0.42899662    -0.82000
H1088       H  0.78400647  0.49778597  0.43088816     0.13700
C1089       C  0.77567698  0.46372167  0.39835890     0.03100
N1090       N  0.78423556  0.48058215  0.34944500    -0.80600
H1091       H  0.79867248  0.52647790  0.34707154     0.18600
C1092       C  0.75105134  0.45796927  0.39765402    -0.25400
C1093       C  0.74302710  0.43466398  0.40332221     0.36600
C1094       C  0.76002102  0.41697046  0.40969176    -0.19500
C1095       C  0.78462001  0.42270066  0.41010612    -0.24700
C1096       C  0.79264239  0.44595696  0.40455106     0.28000
H1097       H  0.73813215  0.47171393  0.39274288     0.13700
N1098       N  0.71791016  0.42861291  0.40170225    -0.82000
H1099       H  0.79752756  0.40883395  0.41466649     0.18600
N1100       N  0.81790671  0.45169282  0.40524075    -0.80600
H1101       H  0.70796608  0.44332331  0.39553226     0.34200
H1102       H  0.71166578  0.42501427  0.41919413     0.38700
H1103       H  0.82797469  0.43666913  0.41037894     0.34200
H1104       H  0.82340833  0.45604960  0.38765064     0.30900
H1105       H  0.78803688  0.48926352  0.33307093     0.34200
H1106       H  0.79666327  0.46654669  0.35094166     0.30900
H1107       H  0.81743661  0.54731998  0.42937376     0.38700
H1108       H  0.79491654  0.53461914  0.44523819     0.34200
C1109       C  0.84083797  0.71486072  0.33741984    -0.19500
C1110       C  0.86529689  0.72237763  0.33601475     0.36700
C1111       C  0.87081998  0.74573623  0.32790740    -0.25500
C1112       C  0.85256138  0.76165272  0.32099052     0.03100
C1113       C  0.82824932  0.75444423  0.32273403     0.27900
C1114       C  0.82263712  0.73111817  0.33072842    -0.24600
N1115       N  0.88450295  0.70619603  0.34227355    -0.82000
H1116       H  0.88947039  0.75143821  0.32651119     0.13700
C1117       C  0.85887910  0.78577761  0.31146266     0.03100
N1118       N  0.80936286  0.77095274  0.31638867    -0.80600
H1119       H  0.80390111  0.72569128  0.33194768     0.18600
C1120       C  0.85563485  0.79058448  0.28681418    -0.25400
C1121       C  0.85855048  0.81388444  0.27750589     0.36600
C1122       C  0.86460501  0.83280331  0.29325429    -0.19500
C1123       C  0.86914288  0.82771715  0.31767495    -0.24700
C1124       C  0.86630874  0.80433625  0.32695416     0.28000
H1125       H  0.85018829  0.77618181  0.27494839     0.13700
N1126       N  0.85488273  0.81854815  0.25221277    -0.82000
H1127       H  0.87355962  0.84222543  0.32982343     0.18600
N1128       N  0.87004256  0.79952636  0.35218893    -0.80600
H1129       H  0.85039519  0.80277388  0.24314905     0.34200
H1130       H  0.87133220  0.82437978  0.24490939     0.38700
H1131       H  0.87553206  0.81507002  0.36109664     0.34200
H1132       H  0.85339855  0.79466148  0.35976619     0.30900
H1133       H  0.79243027  0.76293801  0.31864037     0.34200
H1134       H  0.80999194  0.78522312  0.32856248     0.30900
H1135       H  0.88453858  0.69229476  0.32962717     0.38700
H1136       H  0.90125778  0.71466897  0.34066728     0.34200
C1137       C  0.08773588  0.21742709  0.19331698    -0.19500
C1138       C  0.06415658  0.22700223  0.19063631     0.36700
C1139       C  0.05892839  0.25014983  0.19939382    -0.25500
C1140       C  0.07646593  0.26368110  0.21128814     0.03100
C1141       C  0.09978176  0.25404918  0.21440372     0.27900
C1142       C  0.10513769  0.23109965  0.20546656    -0.24600
N1143       N  0.04546839  0.21315699  0.17945359    -0.82000
H1144       H  0.04096523  0.25754825  0.19733663     0.13700
C1145       C  0.07041521  0.28787316  0.22075328     0.03100
N1146       N  0.11802368  0.26777549  0.22645653    -0.80600
H1147       H  0.12320062  0.22403293  0.20774064     0.18600
C1148       C  0.07202532  0.29196818  0.24567332    -0.25400
C1149       C  0.07035173  0.31512662  0.25508213     0.36600
C1150       C  0.06661774  0.33481273  0.23934775    -0.19500
C1151       C  0.06300757  0.33052503  0.21464223    -0.24700
C1152       C  0.06504333  0.30718859  0.20512030     0.28000
H1153       H  0.07562472  0.27711197  0.25780997     0.13700
N1154       N  0.07266732  0.31810447  0.28068998    -0.82000
H1155       H  0.06018244  0.34556993  0.20254527     0.18600
N1156       N  0.06277225  0.30318783  0.17957986    -0.80600
H1157       H  0.08797076  0.32833023  0.28426500     0.34200
H1158       H  0.05748857  0.32724874  0.28717736     0.38700
H1159       H  0.05874501  0.31922480  0.17063515     0.34200
H1160       H  0.07958592  0.29752735  0.17302198     0.30900
H1161       H  0.13415809  0.25808752  0.22748979     0.34200
H1162       H  0.12163062  0.28291394  0.21584611     0.30900
H1163       H  0.04188564  0.19846368  0.19069491     0.38700
H1164       H  0.02942213  0.22300984  0.17851706     0.34200
C1165       C  0.03109698  0.37752772  0.23445508    -0.19500
C1166       C  0.01359994  0.36173935  0.24391015     0.36700
C1167       C  0.99155745  0.35882834  0.23202337    -0.25500
C1168       C  0.98640816  0.37171404  0.21087174     0.03100
C1169       C  0.00354089  0.38820240  0.20172777     0.27900
C1170       C  0.02575904  0.39098636  0.21367693    -0.24600
N1171       N  0.01809505  0.34885290  0.26582770    -0.82000
H1172       H  0.97829972  0.34649805  0.23942323     0.13700
C1173       C  0.96275948  0.36786210  0.19897027     0.03100
N1174       N  0.99847437  0.40166242  0.18015849    -0.80600
H1175       H  0.03928522  0.40305991  0.20637950     0.18600
C1176       C  0.94579640  0.38651553  0.19845757    -0.25400
C1177       C  0.92226059  0.38277000  0.18978696     0.36600
C1178       C  0.91545752  0.35970604  0.18161256    -0.19500
C1179       C  0.93298576  0.34140097  0.18107079    -0.24700
C1180       C  0.95649691  0.34524156  0.18965300     0.28000
H1181       H  0.95077828  0.40392247  0.20546499     0.13700
N1182       N  0.90527890  0.40227243  0.18948876    -0.82000
H1183       H  0.92814973  0.32373370  0.17465574     0.18600
N1184       N  0.97395747  0.32614295  0.18937979    -0.80600
H1185       H  0.91304288  0.41784431  0.19643349     0.34200
H1186       H  0.90125186  0.40591551  0.17140480     0.38700
H1187       H  0.96650330  0.31057215  0.18211249     0.34200
H1188       H  0.98802520  0.33128618  0.17775854     0.30900
H1189       H  0.01288368  0.41302899  0.17587009     0.34200
H1190       H  0.99706732  0.38947012  0.16591972     0.30900
H1191       H  0.01646408  0.33054510  0.26220826     0.38700
H1192       H  0.00466804  0.35347848  0.27836917     0.34200
C1193       C  0.07009208  0.63108862  0.31095408    -0.19500
C1194       C  0.06844662  0.63653361  0.33578952     0.36700
C1195       C  0.07030882  0.66058391  0.34330134    -0.25500
C1196       C  0.07397988  0.67909709  0.32639277     0.03100
C1197       C  0.07391428  0.67372487  0.30148910     0.27900
C1198       C  0.07228299  0.64973006  0.29403280    -0.24600
N1199       N  0.06609127  0.61755478  0.35328885    -0.82000
H1200       H  0.07023013  0.66477033  0.36241850     0.13700
C1201       C  0.08013119  0.70364126  0.33478556     0.03100
N1202       N  0.07624662  0.69267239  0.28394664    -0.80600
H1203       H  0.07365556  0.64542814  0.27497614     0.18600
C1204       C  0.10274721  0.71319562  0.32856045    -0.25400
C1205       C  0.10928573  0.73665245  0.33505920     0.36600
C1206       C  0.09284464  0.75095793  0.34854179    -0.19500
C1207       C  0.07039731  0.74093026  0.35532353    -0.24700
C1208       C  0.06385300  0.71754315  0.34848060     0.28000
H1209       H  0.11531415  0.70228092  0.31825607     0.13700
N1210       N  0.13260887  0.74571769  0.32806667    -0.82000
H1211       H  0.05760489  0.75150985  0.36567817     0.18600
N1212       N  0.04062065  0.70799330  0.35506048    -0.80600
H1213       H  0.14310585  0.73220852  0.32017677     0.34200
H1214       H  0.12989342  0.75851379  0.31450102     0.38700
H1215       H  0.03076299  0.72045442  0.36521856     0.34200
H1216       H  0.03102320  0.70524785  0.33911223     0.30900
H1217       H  0.07599526  0.68574127  0.26640183     0.34200
H1218       H  0.06104159  0.70367314  0.28565916     0.30900
H1219       H  0.06506763  0.62456891  0.37078021     0.38700
H1220       H  0.08181196  0.60719558  0.35249706     0.34200
C1221       C  0.90930189  0.60447346  0.34368081    -0.19500
C1222       C  0.91837716  0.58107323  0.33960757     0.36700
C1223       C  0.94304426  0.57793998  0.33382010    -0.25500
C1224       C  0.95866264  0.59765548  0.33165371     0.03100
C1225       C  0.94969466  0.62089178  0.33600932     0.27900
C1226       C  0.92523196  0.62403516  0.34193947    -0.24600
N1227       N  0.90282189  0.56057659  0.34186931    -0.82000
H1228       H  0.95004162  0.56009861  0.33046147     0.13700
C1229       C  0.98416734  0.59408458  0.32385526     0.03100
N1230       N  0.96554229  0.64124201  0.33438275    -0.80600
H1231       H  0.91850687  0.64203510  0.34497944     0.18600
C1232       C  0.99223451  0.60508294  0.30241295    -0.25400
C1233       C  0.01629510  0.60321395  0.29472076     0.36600
C1234       C  0.03276292  0.58975086  0.30869160    -0.19500
C1235       C  0.02467204  0.57833505  0.32987808    -0.24700
C1236       C  0.00056220  0.58060455  0.33779997     0.28000
H1237       H  0.97965886  0.61529279  0.29153848     0.13700
N1238       N  0.02313329  0.61467768  0.27239299    -0.82000
H1239       H  0.03746771  0.56821810  0.34055868     0.18600
N1240       N  0.99280932  0.56981018  0.36017309    -0.80600
H1241       H  0.02178466  0.63319305  0.27494975     0.34200
H1242       H  0.04099995  0.61096673  0.26762995     0.38700
H1243       H  0.00709094  0.56059138  0.36825114     0.34200
H1244       H  0.98800816  0.58366169  0.37197773     0.30900
H1245       H  0.95612323  0.65712472  0.33791926     0.34200
H1246       H  0.97843505  0.63945093  0.34796691     0.30900
H1247       H  0.89097677  0.56092302  0.32726726     0.38700
H1248       H  0.91276997  0.54471867  0.34013176     0.34200
C1249       C  0.06019243  0.54401126  0.29125537    -0.19500
C1250       C  0.04466942  0.53912498  0.27178217     0.36700
C1251       C  0.04025584  0.51511339  0.26519191    -0.25500
C1252       C  0.05126797  0.49608093  0.27759021     0.03100
C1253       C  0.06585491  0.50099522  0.29775837     0.27900
C1254       C  0.07013091  0.52490599  0.30438251    -0.24600
N1255       N  0.03466593  0.55849214  0.25789161    -0.82000
H1256       H  0.02938553  0.51125369  0.24948643     0.13700
C1257       C  0.05114362  0.47161233  0.26706866     0.03100
N1258       N  0.07759120  0.48170953  0.31038262    -0.80600
H1259       H  0.08233034  0.52873639  0.31909266     0.18600
C1260       C  0.06947384  0.46575750  0.25053280    -0.25400
C1261       C  0.07330862  0.44195403  0.24329995     0.36600
C1262       C  0.05860342  0.42354078  0.25292038    -0.19500
C1263       C  0.03889719  0.42962529  0.26783151    -0.24700
C1264       C  0.03504281  0.45362315  0.27507482     0.28000
H1265       H  0.08161185  0.47969374  0.24420320     0.13700
N1266       N  0.09290144  0.43614041  0.22713432    -0.82000
H1267       H  0.02762345  0.41549255  0.27522085     0.18600
N1268       N  0.01529745  0.45969254  0.29092250    -0.80600
H1269       H  0.10221355  0.45162049  0.22190915     0.34200
H1270       H  0.08540909  0.42897275  0.21144662     0.38700
H1271       H  0.00504458  0.44445816  0.29496917     0.34200
H1272       H  0.02246787  0.46563774  0.30724955     0.30900
H1273       H  0.08832308  0.48837920  0.32428977     0.34200
H1274       H  0.06420023  0.47130668  0.31867100     0.30900
H1275       H  0.04895793  0.56739772  0.24930567     0.38700
H1276       H  0.02363334  0.55187340  0.24420192     0.34200
C1277       C  0.30329729  0.92399872  0.63772830    -0.19500
C1278       C  0.28753361  0.92845597  0.61806453     0.36700
C1279       C  0.27862004  0.95178641  0.61418748    -0.25500
C1280       C  0.28532421  0.97076841  0.62915779     0.03100
C1281       C  0.30200904  0.96679233  0.64777760     0.27900
C1282       C  0.31076333  0.94350265  0.65193981    -0.24600
N1283       N  0.28012747  0.90935266  0.60239951    -0.82000
H1284       H  0.26592103  0.95512640  0.59975742     0.13700
C1285       C  0.27346181  0.99440600  0.62636946     0.03100
N1286       N  0.30957205  0.98641656  0.66269086    -0.80600
H1287       H  0.32307755  0.94056347  0.66676915     0.18600
C1288       C  0.25591740  0.00120956  0.64339014    -0.25400
C1289       C  0.24433089  0.02356058  0.64183031     0.36600
C1290       C  0.25123542  0.03990651  0.62351575    -0.19500
C1291       C  0.26842422  0.03278598  0.60610789    -0.24700
C1292       C  0.27941955  0.01003682  0.60719889     0.28000
H1293       H  0.25104930  0.98884165  0.65777069     0.13700
N1294       N  0.22526843  0.02957178  0.65848951    -0.82000
H1295       H  0.27360440  0.04517574  0.59191740     0.18600
N1296       N  0.29667206  0.00279127  0.58909158    -0.80600
H1297       H  0.22232702  0.01560470  0.67082009     0.34200
H1298       H  0.20942224  0.03145795  0.64853580     0.38700
H1299       H  0.29884574  0.01625545  0.57606690     0.34200
H1300       H  0.31335647  0.00072529  0.59755329     0.30900
H1301       H  0.32180493  0.98052526  0.67573452     0.34200
H1302       H  0.31889448  0.99853976  0.65160440     0.30900
H1303       H  0.29535682  0.90380649  0.59262532     0.38700
H1304       H  0.26773121  0.91554131  0.58964921     0.34200
C1305       C  0.37290308  0.62978863  0.73082649    -0.19500
C1306       C  0.37111949  0.63361117  0.70575414     0.36700
C1307       C  0.37009459  0.65713594  0.69663067    -0.25500
C1308       C  0.37074532  0.67683413  0.71233228     0.03100
C1309       C  0.37431918  0.67297659  0.73728094     0.27900
C1310       C  0.37501877  0.64943703  0.74634247    -0.24600
N1311       N  0.36883918  0.61364906  0.68972996    -0.82000
H1312       H  0.36729749  0.65999003  0.67746576     0.13700
C1313       C  0.36398584  0.70098959  0.70332459     0.03100
N1314       N  0.37627268  0.69306963  0.75334914    -0.80600
H1315       H  0.37644770  0.64637366  0.76563820     0.18600
C1316       C  0.34247570  0.71113259  0.71194603    -0.25400
C1317       C  0.33515603  0.73420622  0.70494210     0.36600
C1318       C  0.34964493  0.74757593  0.68847130    -0.19500
C1319       C  0.37102613  0.73696838  0.67938573    -0.24700
C1320       C  0.37834035  0.71384596  0.68668915     0.28000
H1321       H  0.33140386  0.70096641  0.72454980     0.13700
N1322       N  0.31310823  0.74393502  0.71471563    -0.82000
H1323       H  0.38226744  0.74679966  0.66669124     0.18600
N1324       N  0.40032145  0.70348311  0.67748522    -0.80600
H1325       H  0.30391475  0.73111081  0.72506828     0.34200
H1326       H  0.31781749  0.75760431  0.72667644     0.38700
H1327       H  0.40877539  0.71521165  0.66533195     0.34200
H1328       H  0.41206823  0.70132071  0.69204755     0.30900
H1329       H  0.37867910  0.68720256  0.77115125     0.34200
H1330       H  0.39188886  0.70247276  0.74848945     0.30900
H1331       H  0.38289823  0.61457033  0.67702630     0.38700
H1332       H  0.35253991  0.61541088  0.68051239     0.34200
C1333       C  0.30254922  0.85651991  0.75246429    -0.19500
C1334       C  0.28205472  0.84607565  0.76377733     0.36700
C1335       C  0.27656357  0.85177942  0.78793831    -0.25500
C1336       C  0.29094282  0.86769440  0.80097907     0.03100
C1337       C  0.31105091  0.87848835  0.78976624     0.27900
C1338       C  0.31661200  0.87289406  0.76557791    -0.24600
N1339       N  0.26683817  0.82979385  0.75078829    -0.82000
H1340       H  0.26116061  0.84352187  0.79682429     0.13700
C1341       C  0.28564634  0.87131102  0.82694149     0.03100
N1342       N  0.32596215  0.89469337  0.80316952    -0.80600
H1343       H  0.33230890  0.88100279  0.75710625     0.18600
C1344       C  0.29827185  0.85752882  0.84382195    -0.25400
C1345       C  0.29192843  0.85791118  0.86830459     0.36600
C1346       C  0.27291940  0.87298266  0.87635480    -0.19500
C1347       C  0.26096847  0.88760915  0.85953806    -0.24700
C1348       C  0.26704343  0.88675577  0.83477847     0.28000
H1349       H  0.31257718  0.84565415  0.83775141     0.13700
N1350       N  0.30516868  0.84281749  0.88452022    -0.82000
H1351       H  0.24621388  0.89892509  0.86557903     0.18600
N1352       N  0.25400880  0.90090257  0.81747284    -0.80600
H1353       H  0.29346559  0.82977969  0.89184920     0.34200
H1354       H  0.31187582  0.85310573  0.89846071     0.38700
H1355       H  0.24067354  0.91109872  0.82613486     0.34200
H1356       H  0.26616797  0.91305487  0.80970540     0.30900
H1357       H  0.34023323  0.90091911  0.79239358     0.34200
H1358       H  0.31543896  0.90965590  0.80757698     0.30900
H1359       H  0.25860443  0.83950708  0.73690217     0.38700
H1360       H  0.25291918  0.82338965  0.76191730     0.34200
C1361       C  0.58910021  0.31927819  0.95945800    -0.19500
C1362       C  0.60739530  0.32158466  0.97707595     0.36700
C1363       C  0.60281918  0.31401668  0.00088197    -0.25500
C1364       C  0.58071347  0.30369678  0.00745215     0.03100
C1365       C  0.56237020  0.30146653  0.99013975     0.27900
C1366       C  0.56668450  0.30941690  0.96633451    -0.24600
N1367       N  0.63082763  0.33083598  0.97070611    -0.82000
H1368       H  0.61682896  0.31556666  0.01434975     0.13700
C1369       C  0.57769396  0.29428680  0.03233666     0.03100
N1370       N  0.53967120  0.29071366  0.99670586    -0.80600
H1371       H  0.55258507  0.30754666  0.95301743     0.18600
C1372       C  0.56116606  0.30518822  0.04818918    -0.25400
C1373       C  0.55890155  0.29726149  0.07221584     0.36600
C1374       C  0.57318679  0.27804625  0.08043866    -0.19500
C1375       C  0.58967675  0.26716983  0.06457144    -0.24700
C1376       C  0.59201009  0.27501961  0.04053217     0.28000
H1377       H  0.55035218  0.32017615  0.04201219     0.13700
N1378       N  0.54266390  0.30919683  0.08845161    -0.82000
H1379       H  0.60046733  0.25227193  0.07095774     0.18600
N1380       N  0.60877343  0.26349936  0.02433177    -0.80600
H1381       H  0.54762192  0.32725558  0.08920074     0.34200
H1382       H  0.52532438  0.30827032  0.08119280     0.38700
H1383       H  0.61801057  0.24973100  0.03322017     0.34200
H1384       H  0.59877142  0.25541830  0.01065117     0.30900
H1385       H  0.52808010  0.29044201  0.98187449     0.34200
H1386       H  0.54301994  0.27283507  0.00131659     0.30900
H1387       H  0.63907160  0.31844114  0.95914431     0.38700
H1388       H  0.64182397  0.33196322  0.98594351     0.34200
C1389       C  0.51700561  0.35812726  0.85093119    -0.19500
C1390       C  0.49960650  0.33952907  0.85060933     0.36700
C1391       C  0.47573322  0.34474988  0.84403470    -0.25500
C1392       C  0.46874507  0.36794763  0.83723680     0.03100
C1393       C  0.48581299  0.38668444  0.83807951     0.27900
C1394       C  0.50975979  0.38157685  0.84487578    -0.24600
N1395       N  0.50628044  0.31522761  0.85624016    -0.82000
H1396       H  0.46250549  0.33046508  0.84368442     0.13700
C1397       C  0.44367002  0.37191090  0.82852837     0.03100
N1398       N  0.47886955  0.41071256  0.83168971    -0.80600
H1399       H  0.52287299  0.39595561  0.84525064     0.18600
C1400       C  0.42856441  0.38846305  0.84032515    -0.25400
C1401       C  0.40456165  0.39177828  0.83300455     0.36600
C1402       C  0.39541304  0.37843736  0.81354811    -0.19500
C1403       C  0.41046348  0.36194097  0.80173187    -0.24700
C1404       C  0.43452462  0.35861663  0.80890185     0.28000
H1405       H  0.43528664  0.39851356  0.85558520     0.13700
N1406       N  0.38927783  0.40818902  0.84580184    -0.82000
H1407       H  0.40341734  0.35185601  0.78665843     0.18600
N1408       N  0.44978632  0.34190125  0.79624283    -0.80600
H1409       H  0.38863375  0.40290803  0.86395034     0.34200
H1410       H  0.39721563  0.42516638  0.84490879     0.38700
H1411       H  0.44028762  0.33347460  0.78240954     0.34200
H1412       H  0.46365030  0.35169311  0.78793668     0.30900
H1413       H  0.49345719  0.42242236  0.83342196     0.34200
H1414       H  0.47420823  0.41073048  0.81340519     0.30900
H1415       H  0.51804317  0.30933596  0.84261947     0.38700
H1416       H  0.49124707  0.30393479  0.85573013     0.34200
C1417       C  0.62806962  0.35673299  0.77752184    -0.19500
C1418       C  0.64789939  0.34695785  0.76449949     0.36700
C1419       C  0.65228422  0.35447372  0.74057240    -0.25500
C1420       C  0.63709232  0.37098787  0.72912357     0.03100
C1421       C  0.61710572  0.38040649  0.74166874     0.27900
C1422       C  0.61283819  0.37328703  0.76573280    -0.24600
N1423       N  0.66370615  0.32968911  0.77549291    -0.82000
H1424       H  0.66749014  0.34715392  0.73057727     0.13700
C1425       C  0.64218456  0.37739741  0.70361122     0.03100
N1426       N  0.60127162  0.39713334  0.72990995    -0.80600
H1427       H  0.59746581  0.38078158  0.77529922     0.18600
C1428       C  0.62936332  0.36549866  0.68553178    -0.25400
C1429       C  0.63640661  0.36714014  0.66118601     0.36600
C1430       C  0.65715083  0.38068613  0.65487819    -0.19500
C1431       C  0.66873667  0.39414408  0.67274200    -0.24700
C1432       C  0.66149057  0.39272431  0.69704282     0.28000
H1433       H  0.61432322  0.35403615  0.69049815     0.13700
N1434       N  0.62246209  0.35439792  0.64356871    -0.82000
H1435       H  0.68447421  0.40474644  0.66803803     0.18600
N1436       N  0.67445382  0.40661030  0.71451545    -0.80600
H1437       H  0.60482290  0.36103831  0.64446959     0.34200
H1438       H  0.62846982  0.35806145  0.62601234     0.38700
H1439       H  0.69202941  0.39982427  0.71532509     0.34200
H1440       H  0.66693096  0.40498954  0.73180138     0.30900
H1441       H  0.58725865  0.40224874  0.74157014     0.34200
H1442       H  0.61123637  0.41262345  0.72610066     0.30900
H1443       H  0.65396775  0.31376354  0.77754461     0.38700
H1444       H  0.67818987  0.32565141  0.76395711     0.34200
C1445       C  0.69913602  0.31643044  0.88966394    -0.19500
C1446       C  0.71225431  0.29840235  0.87714630     0.36700
C1447       C  0.73651859  0.29387355  0.88315022    -0.25500
C1448       C  0.74800285  0.30624352  0.90189050     0.03100
C1449       C  0.73472648  0.32342455  0.91513468     0.27900
C1450       C  0.71061686  0.32844718  0.90880595    -0.24600
N1451       N  0.70103393  0.28464077  0.85840413    -0.82000
H1452       H  0.74667333  0.28067105  0.87294282     0.13700
C1453       C  0.77418512  0.30160802  0.90657379     0.03100
N1454       N  0.74578170  0.33568543  0.93499638    -0.80600
H1455       H  0.70081552  0.34199693  0.91887588     0.18600
C1456       C  0.79072741  0.32068162  0.90524051    -0.25400
C1457       C  0.81569467  0.31659692  0.90632230     0.36600
C1458       C  0.82457864  0.29302147  0.90891927    -0.19500
C1459       C  0.80812954  0.27404842  0.91123813    -0.24700
C1460       C  0.78302743  0.27811384  0.91041420     0.28000
H1461       H  0.78425625  0.33876996  0.90218317     0.13700
N1462       N  0.83171295  0.33657720  0.90371719    -0.82000
H1463       H  0.81494367  0.25590209  0.91289145     0.18600
N1464       N  0.76647521  0.25843235  0.91293683    -0.80600
H1465       H  0.84269506  0.33717469  0.91898391     0.34200
H1466       H  0.84270836  0.33374694  0.88854552     0.38700
H1467       H  0.77583652  0.24235008  0.91551513     0.34200
H1468       H  0.75627820  0.26133616  0.92865073     0.30900
H1469       H  0.73365489  0.34778620  0.94289902     0.34200
H1470       H  0.74976709  0.32287404  0.94821577     0.30900
H1471       H  0.68762516  0.27413243  0.86657004     0.38700
H1472       H  0.71336178  0.27268303  0.85060136     0.34200
C1473       C  0.79889519  0.42283832  0.14100247    -0.19500
C1474       C  0.78803974  0.43692378  0.15926129     0.36700
C1475       C  0.77801820  0.45923889  0.15320101    -0.25500
C1476       C  0.77874025  0.46785008  0.12937063     0.03100
C1477       C  0.78967818  0.45385964  0.11109572     0.27900
C1478       C  0.79952143  0.43136011  0.11708860    -0.24600
N1479       N  0.78623568  0.42807822  0.18366498    -0.82000
H1480       H  0.76970164  0.47011141  0.16718314     0.13700
C1481       C  0.76838868  0.49184567  0.12420164     0.03100
N1482       N  0.79048789  0.46244654  0.08656651    -0.80600
H1483       H  0.80766470  0.42038969  0.10308128     0.18600
C1484       C  0.78355025  0.51007083  0.11543714    -0.25400
C1485       C  0.77490527  0.53356508  0.11242336     0.36600
C1486       C  0.75065840  0.53880292  0.11814603    -0.19500
C1487       C  0.73525763  0.52049029  0.12608752    -0.24700
C1488       C  0.74390813  0.49700092  0.12929370     0.28000
H1489       H  0.80230487  0.50604569  0.11147162     0.13700
N1490       N  0.79036972  0.55200735  0.10286807    -0.82000
H1491       H  0.71654658  0.52470070  0.13001661     0.18600
N1492       N  0.72803695  0.47836878  0.13777411    -0.80600
H1493       H  0.80738290  0.54500745  0.09861441     0.34200
H1494       H  0.79302041  0.56460441  0.11651349     0.38700
H1495       H  0.71067952  0.48515452  0.14082130     0.34200
H1496       H  0.72660404  0.46570342  0.12396824     0.30900
H1497       H  0.79924892  0.45006012  0.07536894     0.34200
H1498       H  0.77271208  0.46372784  0.08049115     0.30900
H1499       H  0.80359332  0.42804608  0.19091002     0.38700
H1500       H  0.77603913  0.43979474  0.19437532     0.34200
C1501       C  0.75761820  0.58086264  0.15409406    -0.19500
C1502       C  0.74575821  0.57102168  0.17438476     0.36700
C1503       C  0.75444787  0.57570630  0.19767356    -0.25500
C1504       C  0.77481902  0.59019804  0.20102338     0.03100
C1505       C  0.78733077  0.59931106  0.18067961     0.27900
C1506       C  0.77849595  0.59464876  0.15737559    -0.24600
N1507       N  0.72405383  0.55748124  0.17146847    -0.82000
H1508       H  0.74480759  0.56864651  0.21326286     0.13700
C1509       C  0.78211888  0.59660612  0.22593789     0.03100
N1510       N  0.80837877  0.61397168  0.18383163    -0.80600
H1511       H  0.78725165  0.60270555  0.14176087     0.18600
C1512       C  0.80362264  0.58737956  0.23528341    -0.25400
C1513       C  0.81070563  0.59235568  0.25913225     0.36600
C1514       C  0.79608804  0.60739160  0.27386363    -0.19500
C1515       C  0.77479564  0.61706570  0.26408593    -0.24700
C1516       C  0.76765132  0.61177510  0.24034459     0.28000
H1517       H  0.81470831  0.57585768  0.22400831     0.13700
N1518       N  0.83287649  0.58247181  0.26813279    -0.82000
H1519       H  0.76348141  0.62861176  0.27509794     0.18600
N1520       N  0.74577101  0.62175128  0.23074719    -0.80600
H1521       H  0.84250425  0.57395512  0.25425825     0.34200
H1522       H  0.82833407  0.56898941  0.28050957     0.38700
H1523       H  0.73709150  0.63242973  0.24366646     0.34200
H1524       H  0.75055767  0.63310243  0.21640895     0.30900
H1525       H  0.81551426  0.61916649  0.16705754     0.34200
H1526       H  0.80293228  0.62967641  0.19259758     0.30900
H1527       H  0.72668262  0.54059430  0.17928154     0.38700
H1528       H  0.71022622  0.56611077  0.18104143     0.34200
C1529       C  0.63692047  0.61050818  0.74734852    -0.19500
C1530       C  0.62157913  0.59575263  0.76167775     0.36700
C1531       C  0.62798872  0.59031404  0.78562688    -0.25500
C1532       C  0.64920221  0.59934065  0.79564456     0.03100
C1533       C  0.66446806  0.61409628  0.78158198     0.27900
C1534       C  0.65820886  0.61950159  0.75758029    -0.24600
N1535       N  0.59935462  0.58664961  0.75211316    -0.82000
H1536       H  0.61626017  0.57918033  0.79669043     0.13700
C1537       C  0.65475648  0.59409547  0.82127595     0.03100
N1538       N  0.68617257  0.62365109  0.79183787    -0.80600
H1539       H  0.67008749  0.63073445  0.74679894     0.18600
C1540       C  0.67404801  0.57882314  0.82687022    -0.25400
C1541       C  0.68134603  0.57532554  0.85085816     0.36600
C1542       C  0.66873826  0.58722983  0.86973234    -0.19500
C1543       C  0.64884677  0.60174218  0.86410888    -0.24700
C1544       C  0.64175213  0.60536131  0.84005123     0.28000
H1545       H  0.68408807  0.57025676  0.81237417     0.13700
N1546       N  0.70244432  0.56090271  0.85501585    -0.82000
H1547       H  0.63947088  0.61112182  0.87853050     0.18600
N1548       N  0.62196273  0.62109392  0.83451288    -0.80600
H1549       H  0.69821562  0.54326975  0.85033666     0.34200
H1550       H  0.70733600  0.56069905  0.87317119     0.38700
H1551       H  0.61425585  0.62791869  0.85038686     0.34200
H1552       H  0.62894934  0.63575991  0.82495606     0.30900
H1553       H  0.69552035  0.63403964  0.77908212     0.34200
H1554       H  0.68111171  0.63521759  0.80582671     0.30900
H1555       H  0.58798107  0.60130299  0.74905492     0.38700
H1556       H  0.59055794  0.57573932  0.76480963     0.34200
C1557       C  0.66913564  0.54665744  0.90805062    -0.19500
C1558       C  0.64400365  0.54261921  0.90619074     0.36700
C1559       C  0.63558545  0.51933651  0.90206861    -0.25500
C1560       C  0.65166163  0.50004309  0.89999432     0.03100
C1561       C  0.67662644  0.50388511  0.90262443     0.27900
C1562       C  0.68512927  0.52722019  0.90667750    -0.24600
N1563       N  0.62655015  0.56146862  0.90922356    -0.82000
H1564       H  0.61635500  0.51625431  0.90047217     0.13700
C1565       C  0.64223344  0.47583470  0.89488376     0.03100
N1566       N  0.69316044  0.48406033  0.90103635    -0.80600
H1567       H  0.70430573  0.53042861  0.90847196     0.18600
C1568       C  0.64584183  0.46605779  0.87182739    -0.25400
C1569       C  0.63816986  0.44267539  0.86650425     0.36600
C1570       C  0.62710556  0.42876163  0.88485524    -0.19500
C1571       C  0.62325686  0.43870735  0.90784189    -0.24700
C1572       C  0.63052517  0.46225413  0.91298618     0.28000
H1573       H  0.65488036  0.47668098  0.85804318     0.13700
N1574       N  0.64268311  0.43263999  0.84297811    -0.82000
H1575       H  0.61473223  0.42796435  0.92185543     0.18600
N1576       N  0.62640623  0.47232962  0.93655380    -0.80600
H1577       H  0.65225563  0.44476266  0.83211126     0.34200
H1578       H  0.62599592  0.43022040  0.83465508     0.38700
H1579       H  0.61740350  0.46005923  0.94773537     0.34200
H1580       H  0.64324644  0.47536986  0.94436273     0.30900
H1581       H  0.71091801  0.48994753  0.90320901     0.34200
H1582       H  0.68942859  0.47253348  0.91553096     0.30900
H1583       H  0.63464103  0.57761639  0.91403848     0.38700
H1584       H  0.61813953  0.56415168  0.89258047     0.34200
C1585       C  0.69620520  0.56584330  0.95322944    -0.19500
C1586       C  0.71895860  0.56869364  0.96410157     0.36700
C1587       C  0.72239616  0.56088018  0.98791659    -0.25500
C1588       C  0.70393180  0.54935408  0.00102051     0.03100
C1589       C  0.68192924  0.54430715  0.98927655     0.27900
C1590       C  0.67816985  0.55288812  0.96556432    -0.24600
N1591       N  0.73831282  0.58029346  0.95114449    -0.82000
H1592       H  0.73924384  0.56509494  0.99672244     0.13700
C1593       C  0.70699157  0.54660873  0.02771448     0.03100
N1594       N  0.66325708  0.53123107  0.00174298    -0.80600
H1595       H  0.66070293  0.55055466  0.95727584     0.18600
C1596       C  0.68952391  0.55663985  0.04320557    -0.25400
C1597       C  0.69489784  0.56184974  0.06739083     0.36600
C1598       C  0.71846375  0.55781025  0.07603307    -0.19500
C1599       C  0.73489726  0.54502262  0.06156637    -0.24700
C1600       C  0.72916505  0.53889925  0.03760891     0.28000
H1601       H  0.67234317  0.56238144  0.03599598     0.13700
N1602       N  0.67699029  0.57267684  0.08284561    -0.82000
H1603       H  0.75289759  0.54153450  0.06808999     0.18600
N1604       N  0.74635549  0.52629589  0.02274765    -0.80600
H1605       H  0.66064445  0.57466050  0.07372972     0.34200
H1606       H  0.67373653  0.56082418  0.09718433     0.38700
H1607       H  0.76183013  0.52212677  0.03261561     0.34200
H1608       H  0.73852239  0.50998685  0.01789069     0.30900
H1609       H  0.64822719  0.52912641  0.99065305     0.34200
H1610       H  0.66991300  0.51402234  0.00524199     0.30900
H1611       H  0.74267245  0.56955294  0.93626199     0.38700
H1612       H  0.75380180  0.58120412  0.96175488     0.34200
C1613       C  0.32122512  0.77636699  0.41259226    -0.19500
C1614       C  0.30262478  0.76799428  0.42803877     0.36700
C1615       C  0.27899163  0.77698170  0.42530937    -0.25500
C1616       C  0.27363738  0.79394935  0.40734038     0.03100
C1617       C  0.29236661  0.80297753  0.39254864     0.27900
C1618       C  0.31595794  0.79410486  0.39534116    -0.24600
N1619       N  0.30748449  0.74958872  0.44556233    -0.82000
H1620       H  0.26449842  0.77011288  0.43661875     0.13700
C1621       C  0.24815772  0.80107349  0.40309589     0.03100
N1622       N  0.28720578  0.82066808  0.37434263    -0.80600
H1623       H  0.33019950  0.80038983  0.38337013     0.18600
C1624       C  0.23944467  0.82273851  0.41245801    -0.25400
C1625       C  0.21556570  0.83036050  0.40818811     0.36600
C1626       C  0.20023437  0.81624477  0.39351458    -0.19500
C1627       C  0.20915818  0.79443255  0.38431571    -0.24700
C1628       C  0.23284061  0.78665662  0.38908342     0.28000
H1629       H  0.25135482  0.83370105  0.42322980     0.13700
N1630       N  0.20720738  0.85264912  0.41822156    -0.82000
H1631       H  0.19756442  0.78330510  0.37337975     0.18600
N1632       N  0.24145498  0.76417776  0.37971043    -0.80600
H1633       H  0.22131247  0.86163257  0.42675946     0.34200
H1634       H  0.19471174  0.84851572  0.43186572     0.38700
H1635       H  0.22788530  0.75552599  0.37005709     0.34200
H1636       H  0.25533564  0.76789322  0.36733847     0.30900
H1637       H  0.30299279  0.82561025  0.36513916     0.34200
H1638       H  0.27594874  0.81272675  0.36157844     0.30900
H1639       H  0.29193437  0.74559149  0.45560982     0.38700
H1640       H  0.31210843  0.73401952  0.43611661     0.34200
C1641       C  0.35933169  0.77076937  0.45337261    -0.19500
C1642       C  0.35975511  0.75582108  0.47395890     0.36700
C1643       C  0.35706957  0.76604879  0.49698838    -0.25500
C1644       C  0.35436466  0.79087518  0.49972215     0.03100
C1645       C  0.35494186  0.80595220  0.47924173     0.27900
C1646       C  0.35708056  0.79565841  0.45617229    -0.24600
N1647       N  0.36273101  0.73036615  0.47134756    -0.82000
H1648       H  0.35695798  0.75465824  0.51290314     0.13700
C1649       C  0.35108102  0.80063033  0.52429717     0.03100
N1650       N  0.35417106  0.83157035  0.48200120    -0.80600
H1651       H  0.35731596  0.80701366  0.44024813     0.18600
C1652       C  0.37135493  0.80389143  0.53887568    -0.25400
C1653       C  0.36887469  0.81133610  0.56303337     0.36600
C1654       C  0.34554208  0.81556006  0.57268819    -0.19500
C1655       C  0.32532331  0.81269362  0.55777060    -0.24700
C1656       C  0.32782853  0.80499380  0.53375423     0.28000
H1657       H  0.38913775  0.80028762  0.53141922     0.13700
N1658       N  0.38991276  0.81455956  0.57770746    -0.82000
H1659       H  0.30738015  0.81562744  0.56513115     0.18600
N1660       N  0.30683646  0.80041191  0.51935268    -0.80600
H1661       H  0.40557640  0.81037036  0.56793302     0.34200
H1662       H  0.39101090  0.83277248  0.58198788     0.38700
H1663       H  0.29107479  0.80370489  0.52932930     0.34200
H1664       H  0.30679588  0.81257815  0.50496544     0.30900
H1665       H  0.35552200  0.84003195  0.46514486     0.34200
H1666       H  0.33732053  0.83623570  0.48914531     0.30900
H1667       H  0.34778973  0.72379206  0.46207188     0.38700
H1668       H  0.36274707  0.72195526  0.48825781     0.34200
C1669       C  0.59173689  0.65641022  0.56943930    -0.19500
C1670       C  0.61036596  0.66354693  0.55334151     0.36700
C1671       C  0.60460490  0.67031784  0.52961483    -0.25500
C1672       C  0.58068375  0.67024457  0.52173676     0.03100
C1673       C  0.56196413  0.66377262  0.53785537     0.27900
C1674       C  0.56766282  0.65703081  0.56169162    -0.24600
N1675       N  0.63503070  0.66412469  0.56123026    -0.82000
H1676       H  0.61883060  0.67549110  0.51708910     0.13700
C1677       C  0.57576113  0.67611740  0.49618926     0.03100
N1678       N  0.53737038  0.66371964  0.52978689    -0.80600
H1679       H  0.55337481  0.65172294  0.57407809     0.18600
C1680       C  0.57289224  0.65737286  0.47970044    -0.25400
C1681       C  0.56906163  0.66200371  0.45514805     0.36600
C1682       C  0.56849939  0.68603864  0.44684135    -0.19500
C1683       C  0.57116859  0.70479739  0.46341983    -0.24700
C1684       C  0.57478002  0.70006085  0.48810867     0.28000
H1685       H  0.57349463  0.63896804  0.48602374     0.13700
N1686       N  0.56486869  0.64195713  0.43949366    -0.82000
H1687       H  0.57053788  0.72313313  0.45694206     0.18600
N1688       N  0.57767270  0.71935960  0.50498276    -0.80600
H1689       H  0.58110746  0.63252843  0.43776207     0.34200
H1690       H  0.55969036  0.64737238  0.42223538     0.38700
H1691       H  0.57666571  0.73589262  0.49608216     0.34200
H1692       H  0.56309119  0.71874832  0.51708811     0.30900
H1693       H  0.52577933  0.65831574  0.54377956     0.34200
H1694       H  0.53269902  0.68138907  0.52550371     0.30900
H1695       H  0.63627778  0.67713125  0.57472561     0.38700
H1696       H  0.64648441  0.66963055  0.54715301     0.34200
C1697       C  0.60418504  0.67551740  0.40480315    -0.19500
C1698       C  0.61060747  0.65482952  0.39172497     0.36700
C1699       C  0.63494421  0.64798763  0.38988832    -0.25500
C1700       C  0.65308163  0.66188118  0.40045832     0.03100
C1701       C  0.64660761  0.68207546  0.41441118     0.27900
C1702       C  0.62213083  0.68857984  0.41664330    -0.24600
N1703       N  0.59245019  0.64106781  0.37982661    -0.82000
H1704       H  0.63980112  0.63244593  0.37918327     0.13700
C1705       C  0.67877839  0.65643337  0.39490004     0.03100
N1706       N  0.66501855  0.69631185  0.42552646    -0.80600
H1707       H  0.61717113  0.70464597  0.42647508     0.18600
C1708       C  0.69201351  0.67263534  0.38065003    -0.25400
C1709       C  0.71616445  0.66805372  0.37407831     0.36600
C1710       C  0.72761314  0.64689135  0.38244337    -0.19500
C1711       C  0.71417045  0.63069420  0.39680884    -0.24700
C1712       C  0.68986842  0.63518796  0.40297769     0.28000
H1713       H  0.68325369  0.68883004  0.37429126     0.13700
N1714       N  0.72908023  0.68511915  0.35937845    -0.82000
H1715       H  0.72261524  0.61435508  0.40319446     0.18600
N1716       N  0.67643030  0.61836048  0.41748663    -0.80600
H1717       H  0.71868544  0.70053339  0.35663362     0.34200
H1718       H  0.73149276  0.67745685  0.34230177     0.38700
H1719       H  0.68715021  0.60356272  0.42189371     0.34200
H1720       H  0.67198068  0.62681158  0.43377554     0.30900
H1721       H  0.65732406  0.71071636  0.43487229     0.34200
H1722       H  0.67354988  0.68555726  0.43841638     0.30900
H1723       H  0.59320024  0.62353983  0.38653502     0.38700
H1724       H  0.59668682  0.64056761  0.36137854     0.34200
C1725       C  0.52471933  0.71344471  0.42544144    -0.19500
C1726       C  0.51561119  0.73636929  0.41965583     0.36700
C1727       C  0.49223925  0.74279140  0.42724585    -0.25500
C1728       C  0.47802257  0.72702923  0.44114496     0.03100
C1729       C  0.48848158  0.70548425  0.44966061     0.27900
C1730       C  0.51161791  0.69870559  0.44140265    -0.24600
N1731       N  0.52979167  0.75260984  0.40516454    -0.82000
H1732       H  0.48450900  0.75944304  0.42078621     0.13700
C1733       C  0.45139502  0.73115572  0.44234775     0.03100
N1734       N  0.47505128  0.69008638  0.46570718    -0.80600
H1735       H  0.51868115  0.68123467  0.44619655     0.18600
C1736       C  0.43617196  0.71294339  0.43400199    -0.25400
C1737       C  0.41171215  0.71714195  0.42957146     0.36600
C1738       C  0.40226480  0.74061373  0.43226928    -0.19500
C1739       C  0.41685036  0.75837279  0.44260418    -0.24700
C1740       C  0.44129151  0.75376998  0.44797615     0.28000
H1741       H  0.44355610  0.69546819  0.42965366     0.13700
N1742       N  0.39728587  0.69734569  0.42145191    -0.82000
H1743       H  0.40968962  0.77629599  0.44496769     0.18600
N1744       N  0.45614703  0.77222125  0.45810995    -0.80600
H1745       H  0.39837763  0.68387006  0.43458123     0.34200
H1746       H  0.37903764  0.70195250  0.42086619     0.38700
H1747       H  0.44603494  0.78779219  0.46108933     0.34200
H1748       H  0.46182619  0.76622455  0.47506883     0.30900
H1749       H  0.48520330  0.67490392  0.47016303     0.34200
H1750       H  0.47216735  0.69949325  0.48179187     0.30900
H1751       H  0.54522950  0.75684981  0.41500083     0.38700
H1752       H  0.52048757  0.76870732  0.40241571     0.34200
C1753       C  0.08944954  0.82191762  0.46390521    -0.19500
C1754       C  0.06704812  0.81221248  0.47160521     0.36700
C1755       C  0.06445644  0.80364373  0.49545197    -0.25500
C1756       C  0.08356438  0.80489502  0.51187408     0.03100
C1757       C  0.10542309  0.81577244  0.50466503     0.27900
C1758       C  0.10814082  0.82414777  0.48081792    -0.24600
N1759       N  0.04708701  0.81086764  0.45521870    -0.82000
H1760       H  0.04761861  0.79543548  0.50112995     0.13700
C1761       C  0.08092480  0.79374746  0.53619769     0.03100
N1762       N  0.12491371  0.81789913  0.52153151    -0.80600
H1763       H  0.12529536  0.83174386  0.47524612     0.18600
C1764       C  0.09686070  0.77534261  0.54287417    -0.25400
C1765       C  0.09517753  0.76433094  0.56569354     0.36600
C1766       C  0.07735519  0.77202263  0.58226154    -0.19500
C1767       C  0.06106920  0.79004463  0.57544072    -0.24700
C1768       C  0.06272851  0.80108991  0.55258129     0.28000
H1769       H  0.11054202  0.76942698  0.53010181     0.13700
N1770       N  0.11127479  0.74515726  0.57204274    -0.82000
H1771       H  0.04743483  0.79587765  0.58827989     0.18600
N1772       N  0.04633340  0.81998937  0.54609399    -0.80600
H1773       H  0.12339382  0.74166109  0.55791179     0.23000
H1774       H  0.10089026  0.72967758  0.57446895     0.38700
H1775       H  0.03400396  0.82318224  0.56013451     0.34200
H1776       H  0.05644010  0.83567665  0.54394044     0.30900
H1777       H  0.13983563  0.82615429  0.51337483     0.34200
H1778       H  0.11913387  0.82924047  0.53544531     0.30900
H1779       H  0.04206100  0.82842673  0.45088223     0.38700
H1780       H  0.03210953  0.80297058  0.46365129     0.34200
C1781       C  0.11792272  0.77240015  0.62077105    -0.19500
C1782       C  0.12202569  0.79740312  0.62267043     0.36700
C1783       C  0.14572051  0.80574341  0.62566789    -0.25500
C1784       C  0.16517190  0.78970034  0.62710709     0.03100
C1785       C  0.16121419  0.76500435  0.62393178     0.27900
C1786       C  0.13759853  0.75658584  0.62105453    -0.24600
N1787       N  0.10273090  0.81468419  0.62271911    -0.82000
H1788       H  0.14884822  0.82477099  0.62798400     0.13700
C1789       C  0.18942829  0.79848373  0.63368330     0.03100
N1790       N  0.18120850  0.74855882  0.62436402    -0.80600
H1791       H  0.13437609  0.73746577  0.61984708     0.18600
C1792       C  0.19868159  0.79236557  0.65637507    -0.25400
C1793       C  0.22236864  0.79842695  0.66285333     0.36600
C1794       C  0.23714569  0.81123570  0.64620135    -0.19500
C1795       C  0.22735347  0.81792435  0.62368206    -0.24700
C1796       C  0.20372641  0.81155916  0.61723926     0.28000
H1797       H  0.18743717  0.78231805  0.66892044     0.13700
N1798       N  0.23123950  0.79155936  0.68624238    -0.82000
H1799       H  0.23829076  0.82780989  0.61076631     0.18600
N1800       N  0.19431186  0.81795931  0.59394554    -0.80600
H1801       H  0.21742949  0.78409446  0.69682489     0.34200
H1802       H  0.24387683  0.77786554  0.68357611     0.38700
H1803       H  0.20709881  0.82767274  0.58394920     0.34200
H1804       H  0.19125718  0.80209039  0.58445799     0.30900
H1805       H  0.17522905  0.73096384  0.62192948     0.34200
H1806       H  0.19234005  0.75259090  0.60955320     0.30900
H1807       H  0.08593496  0.80659197  0.62057725     0.38700
H1808       H  0.10241079  0.82287666  0.63968925     0.34200
C1809       C  0.82382138  0.69641348  0.60980790    -0.19500
C1810       C  0.80469670  0.71254072  0.61472901     0.36700
C1811       C  0.78127712  0.70384561  0.61796613    -0.25500
C1812       C  0.77631636  0.67928109  0.61646453     0.03100
C1813       C  0.79493676  0.66328087  0.60964782     0.27900
C1814       C  0.81860198  0.67205832  0.60632293    -0.24600
N1815       N  0.80849820  0.73788507  0.61644929    -0.82000
H1816       H  0.76689411  0.71630589  0.62242142     0.13700
C1817       C  0.75176154  0.67075138  0.62320316     0.03100
N1818       N  0.78992785  0.63815309  0.60705161    -0.80600
H1819       H  0.83320441  0.65967585  0.60247677     0.18600
C1820       C  0.73736349  0.65964153  0.60587267    -0.25400
C1821       C  0.71350174  0.65269092  0.61128195     0.36600
C1822       C  0.70388211  0.65662716  0.63486442    -0.19500
C1823       C  0.71862559  0.66754848  0.65222870    -0.24700
C1824       C  0.74240725  0.67454410  0.64668129     0.28000
H1825       H  0.74461023  0.65695461  0.58782321     0.13700
N1826       N  0.69904297  0.64204985  0.59270694    -0.82000
H1827       H  0.71166727  0.67053784  0.67033018     0.18600
N1828       N  0.75720079  0.68543736  0.66483555    -0.80600
H1829       H  0.70915396  0.63960392  0.57686139     0.34200
H1830       H  0.68537504  0.65426276  0.58843315     0.38700
H1831       H  0.74765713  0.68709204  0.68113491     0.34200
H1832       H  0.77165193  0.67384648  0.66816826     0.30900
H1833       H  0.80553348  0.62887508  0.60187209     0.34200
H1834       H  0.78486665  0.63151561  0.62404868     0.30900
H1835       H  0.81722140  0.74369908  0.60065113     0.38700
H1836       H  0.81950569  0.74152113  0.63118707     0.34200
C1837       C  0.83993064  0.64751783  0.45349644    -0.19500
C1838       C  0.82157581  0.65142511  0.47098539     0.36700
C1839       C  0.82785053  0.65940515  0.49418269    -0.25500
C1840       C  0.85195701  0.66379628  0.50026416     0.03100
C1841       C  0.87035257  0.65938844  0.48311362     0.27900
C1842       C  0.86415273  0.65133136  0.45989469    -0.24600
N1843       N  0.79660719  0.64807102  0.46498174    -0.82000
H1844       H  0.81380980  0.66278787  0.50750440     0.13700
C1845       C  0.85730118  0.67418619  0.52430863     0.03100
N1846       N  0.89517003  0.66351158  0.48920611    -0.80600
H1847       H  0.87831133  0.64822847  0.44663546     0.18600
C1848       C  0.86996022  0.66066183  0.54148432    -0.25400
C1849       C  0.87357594  0.66937430  0.56498063     0.36600
C1850       C  0.86466073  0.69236009  0.57123418    -0.19500
C1851       C  0.85233677  0.70595868  0.55394288    -0.24700
C1852       C  0.84877736  0.69722277  0.53045398     0.28000
H1853       H  0.87644155  0.64291614  0.53681147     0.13700
N1854       N  0.88570124  0.65420118  0.58208989    -0.82000
H1855       H  0.84544811  0.72345481  0.55892661     0.18600
N1856       N  0.83647960  0.71157466  0.51276369    -0.80600
H1857       H  0.87529007  0.63872944  0.58432289     0.34200
H1858       H  0.88653846  0.66218336  0.59909551     0.38700
H1859       H  0.83130409  0.72804691  0.52016281     0.34200
H1860       H  0.84880705  0.71538056  0.49886750     0.30900
H1861       H  0.90648729  0.65926772  0.47462310     0.34200
H1862       H  0.89722062  0.68187655  0.49233877     0.30900
H1863       H  0.79213321  0.66096760  0.45200077     0.38700
H1864       H  0.78551335  0.65134808  0.48000108     0.34200
C1865       C  0.91159810  0.71282975  0.59459508    -0.19500
C1866       C  0.91859224  0.73283862  0.58032180     0.36700
C1867       C  0.94321663  0.73847528  0.57796255    -0.25500
C1868       C  0.96085405  0.72488731  0.58984786     0.03100
C1869       C  0.95398293  0.70426097  0.60295439     0.27900
C1870       C  0.92945954  0.69823762  0.60481645    -0.24600
N1871       N  0.90132546  0.74897649  0.56980768    -0.82000
H1872       H  0.94846471  0.75463818  0.56835546     0.13700
C1873       C  0.98530282  0.73499381  0.59311329     0.03100
N1874       N  0.97168882  0.69094033  0.61634176    -0.80600
H1875       H  0.92406912  0.68336578  0.61630172     0.18600
C1876       C  0.98861963  0.75082583  0.61239639    -0.25400
C1877       C  0.01179901  0.75790985  0.61932565     0.36600
C1878       C  0.03208041  0.74895857  0.60671266    -0.19500
C1879       C  0.02876802  0.73449484  0.58627512    -0.24700
C1880       C  0.00540837  0.72730064  0.57936723     0.28000
H1881       H  0.97306056  0.75681484  0.62275318     0.13700
N1882       N  0.01496061  0.77352923  0.63968796    -0.82000
H1883       H  0.04442480  0.72775970  0.57657701     0.18600
N1884       N  0.00204289  0.71207782  0.55875429    -0.80600
H1885       H  0.99826068  0.77836720  0.64714883     0.34200
H1886       H  0.02295078  0.78931593  0.63328953     0.38700
H1887       H  0.01865560  0.70822612  0.55052366     0.34200
H1888       H  0.99504448  0.69574931  0.56484157     0.30900
H1889       H  0.96352975  0.67702071  0.62608807     0.34200
H1890       H  0.98341265  0.68286368  0.60391452     0.30900
H1891       H  0.88366238  0.74343065  0.57322368     0.38700
H1892       H  0.90375149  0.74842222  0.55105143     0.34200
C1893       C  0.53472761  0.08503594  0.81440263    -0.19500
C1894       C  0.52471490  0.07058523  0.83290758     0.36700
C1895       C  0.49996543  0.07245641  0.83842489    -0.25500
C1896       C  0.48520930  0.08873723  0.82605060     0.03100
C1897       C  0.49524824  0.10338798  0.80774518     0.27900
C1898       C  0.51992179  0.10128421  0.80203009    -0.24600
N1899       N  0.53985645  0.05451460  0.84635129    -0.82000
H1900       H  0.49223213  0.06165584  0.85284111     0.13700
C1901       C  0.45994731  0.09216192  0.83428181     0.03100
N1902       N  0.48054489  0.12089936  0.79565684    -0.80600
H1903       H  0.52772494  0.11231960  0.78785046     0.18600
C1904       C  0.45558716  0.10729665  0.85394997    -0.25400
C1905       C  0.43199718  0.11190438  0.86221987     0.36600
C1906       C  0.41212935  0.10172954  0.84995641    -0.19500
C1907       C  0.41672025  0.08566229  0.83082658    -0.24700
C1908       C  0.44046905  0.08061534  0.82301063     0.28000
H1909       H  0.47077016  0.11554848  0.86291802     0.13700
N1910       N  0.42826411  0.12673636  0.88313822    -0.82000
H1911       H  0.40174643  0.07732367  0.82162483     0.18600
N1912       N  0.44489049  0.06353813  0.80405160    -0.80600
H1913       H  0.44472586  0.13297388  0.88976344     0.34200
H1914       H  0.42078446  0.11592653  0.89672610     0.38700
H1915       H  0.42864324  0.05624169  0.79804186     0.34200
H1916       H  0.45248958  0.07263416  0.78932641     0.30900
H1917       H  0.49087927  0.13069811  0.78319929     0.34200
H1918       H  0.46759124  0.11175443  0.78565476     0.30900
H1919       H  0.55240799  0.06487387  0.85568945     0.38700
H1920       H  0.52975837  0.04521819  0.85937133     0.34200
C1921       C  0.59150034  0.24858445  0.84632616    -0.19500
C1922       C  0.60964681  0.23341172  0.83677673     0.36700
C1923       C  0.60402151  0.20977172  0.83040982    -0.25500
C1924       C  0.58056049  0.20069951  0.83322939     0.03100
C1925       C  0.56242902  0.21548813  0.84321239     0.27900
C1926       C  0.56808666  0.23921755  0.84974132    -0.24600
N1927       N  0.63393949  0.24172083  0.83374452    -0.82000
H1928       H  0.61815565  0.19835951  0.82314318     0.13700
C1929       C  0.57552467  0.17576707  0.82522815     0.03100
N1930       N  0.53830330  0.20648450  0.84631407    -0.80600
H1931       H  0.55396988  0.25056164  0.85711112     0.18600
C1932       C  0.56740285  0.15852010  0.84198533    -0.25400
C1933       C  0.56579285  0.13418837  0.83554448     0.36600
C1934       C  0.57219842  0.12699737  0.81196237    -0.19500
C1935       C  0.57904222  0.14443772  0.79491653    -0.24700
C1936       C  0.58060421  0.16874062  0.80123459     0.28000
H1937       H  0.56349614  0.16375836  0.86045829     0.13700
N1938       N  0.55915184  0.11671214  0.85338828    -0.82000
H1939       H  0.58399221  0.13890826  0.77677150     0.18600
N1940       N  0.58794544  0.18629188  0.78356385    -0.80600
H1941       H  0.57126051  0.11794432  0.86773066     0.34200
H1942       H  0.54194932  0.12106855  0.85993322     0.38700
H1943       H  0.59123349  0.17819483  0.76683175     0.34200
H1944       H  0.57348411  0.19808964  0.78112253     0.30900
H1945       H  0.52710193  0.21958103  0.85395048     0.34200
H1946       H  0.53148616  0.20286614  0.82914257     0.30900
H1947       H  0.63873206  0.23993794  0.81551301     0.38700
H1948       H  0.64525702  0.23061258  0.84387279     0.34200
C1949       C  0.57129732  0.83584166  0.73220545    -0.19500
C1950       C  0.56603574  0.83109428  0.70774339     0.36700
C1951       C  0.56771009  0.80738775  0.69908743    -0.25500
C1952       C  0.57509090  0.78859375  0.71428534     0.03100
C1953       C  0.57932706  0.79322030  0.73892154     0.27900
C1954       C  0.57743114  0.81677625  0.74759657    -0.24600
N1955       N  0.56036192  0.85041365  0.69150809    -0.82000
H1956       H  0.56461704  0.80375484  0.68013109     0.13700
C1957       C  0.58106294  0.76477895  0.70383353     0.03100
N1958       N  0.58625232  0.77402001  0.75483441    -0.80600
H1959       H  0.58146921  0.82044942  0.76636505     0.18600
C1960       C  0.60520657  0.75728303  0.70381689    -0.25400
C1961       C  0.61208439  0.73486687  0.69450565     0.36600
C1962       C  0.59424582  0.71913269  0.68552719    -0.19500
C1963       C  0.57005696  0.72701410  0.68499373    -0.24700
C1964       C  0.56331525  0.74969946  0.69402377     0.28000
H1965       H  0.61883290  0.76919173  0.71094590     0.13700
N1966       N  0.63717729  0.72825634  0.69389109    -0.82000
H1967       H  0.55624948  0.71525813  0.67798917     0.18600
N1968       N  0.53854046  0.75735156  0.69358993    -0.80600
H1969       H  0.64782535  0.74168869  0.70151058     0.34200
H1970       H  0.64240019  0.72704482  0.67573256     0.38700
H1971       H  0.52771919  0.74423087  0.68568752     0.34200
H1972       H  0.53264621  0.75908240  0.71150188     0.30900
H1973       H  0.58897013  0.78042553  0.77234160     0.34200
H1974       H  0.57178613  0.76202715  0.75587139     0.30900
H1975       H  0.57557877  0.86140873  0.69012175     0.38700
H1976       H  0.55702050  0.84388797  0.67415715     0.34200
C1977       C  0.53267028  0.87663260  0.73210206    -0.19500
C1978       C  0.51572623  0.85979097  0.74103707     0.36700
C1979       C  0.49352191  0.85744415  0.72943572    -0.25500
C1980       C  0.48756049  0.87184918  0.70952632     0.03100
C1981       C  0.50406157  0.88923706  0.70112197     0.27900
C1982       C  0.52645200  0.89154671  0.71263636    -0.24600
N1983       N  0.52025196  0.84510198  0.76193977    -0.82000
H1984       H  0.48063187  0.84439476  0.73619825     0.13700
C1985       C  0.46383540  0.86834466  0.69792513     0.03100
N1986       N  0.49822894  0.90401825  0.68064577    -0.80600
H1987       H  0.53953601  0.90440714  0.70592750     0.18600
C1988       C  0.44675680  0.88689340  0.69836850    -0.25400
C1989       C  0.42317404  0.88325404  0.68990218     0.36600
C1990       C  0.41651059  0.86038677  0.68110589    -0.19500
C1991       C  0.43416351  0.84228072  0.67956586    -0.24700
C1992       C  0.45772399  0.84605272  0.68782926     0.28000
H1993       H  0.45168903  0.90407490  0.70595143     0.13700
N1994       N  0.40601303  0.90260680  0.69048091    -0.82000
H1995       H  0.42941532  0.82479297  0.67261835     0.18600
N1996       N  0.47541043  0.82719730  0.68648140    -0.80600
H1997       H  0.41374011  0.91802418  0.69781092     0.34200
H1998       H  0.40168434  0.90678176  0.67258744     0.38700
H1999       H  0.46802250  0.81182046  0.67872796     0.34200
H2000       H  0.48920640  0.83296407  0.67484927     0.30900
H2001       H  0.51234615  0.91588993  0.67677956     0.34200
H2002       H  0.49665748  0.89278683  0.66564807     0.30900
H2003       H  0.53651480  0.84964773  0.77009440     0.38700
H2004       H  0.50685780  0.84896302  0.77477360     0.34200
C2005       C  0.56161971  0.03869125  0.79818048    -0.19500
C2006       C  0.57441217  0.01873867  0.80719072     0.36700
C2007       C  0.56790409  0.99562410  0.79985738    -0.25500
C2008       C  0.54871296  0.99205482  0.78395127     0.03100
C2009       C  0.53427314  0.01168916  0.77698093     0.27900
C2010       C  0.54097106  0.03498617  0.78409872    -0.24600
N2011       N  0.59457828  0.02217186  0.82300786    -0.82000
H2012       H  0.57869935  0.98039132  0.80544965     0.13700
C2013       C  0.54709717  0.96839923  0.77202008     0.03100
N2014       N  0.51318678  0.00793631  0.76251538    -0.80600
H2015       H  0.53094029  0.05029244  0.77745122     0.18600
C2016       C  0.53666253  0.94894437  0.78436056    -0.25400
C2017       C  0.54074657  0.92524692  0.77650283     0.36600
C2018       C  0.55565762  0.92117928  0.75613165    -0.19500
C2019       C  0.56461052  0.94071835  0.74290003    -0.24700
C2020       C  0.56052301  0.96432049  0.75064379     0.28000
H2021       H  0.52667307  0.95217980  0.80095913     0.13700
N2022       N  0.53147098  0.90529849  0.79016971    -0.82000
H2023       H  0.57633093  0.93744505  0.72747035     0.18600
N2024       N  0.57183622  0.98405847  0.73819537    -0.80600
H2025       H  0.52167600  0.91133776  0.80520890     0.34200
H2026       H  0.51917497  0.89636087  0.77919778     0.38700
H2027       H  0.58202441  0.97792306  0.72345637     0.34200
H2028       H  0.55821449  0.99484068  0.73104600     0.30900
H2029       H  0.50441006  0.02420892  0.75925696     0.34200
H2030       H  0.51871907  0.00137102  0.74568663     0.30900
H2031       H  0.58797992  0.02989746  0.83894260     0.38700
H2032       H  0.60216686  0.00568632  0.82786507     0.34200
loop_ 
_geom_bond_atom_site_label_1 
_geom_bond_atom_site_label_2 
_geom_bond_distance 
_geom_bond_site_symmetry_2 
_ccdc_geom_bond_type 
N1            C5   1.359       .  A
N1            C2   1.355       .  A
N1         C1977   1.437       .  S
C2            C3   1.381       .  A
C2         C2018   1.478       .  S
C3            C4   1.375       .  A
C3            H6   1.082       .  S
C4            C5   1.383       .  A
C4            H7   1.082       .  S
C5         C1949   1.485       .  S
N8           C12   1.360       .  A
N8            C9   1.358       .  A
N8         C1893   1.442       .  S
C9           C10   1.383       .  A
C9         C2005   1.483       .  S
C10          C11   1.372       .  A
C10          H13   1.082       .  S
C11          C12   1.382       .  A
C11          H14   1.082       .  S
C12        C1934   1.483       .  S
N15          C19   1.357       .  A
N15          C16   1.357       .  A
N15        C1850   1.438       .  S
C16          C17   1.380       .  A
C16        C1865   1.477       .  S
C17          C18   1.372       .  A
C17          H20   1.082       .  S
C18          C19   1.383       .  A
C18          H21   1.082       .  S
C19        C1809   1.481       .  S
N22          C26   1.357       .  A
N22          C23   1.357       .  A
N22        C1766   1.441       .  S
C23          C24   1.383       .  A
C23        C1878   1.480       .  S
C24          C25   1.373       .  A
C24          H27   1.082       .  S
C25          C26   1.380       .  A
C25          H28   1.082       .  S
C26        C1781   1.476       .  S
N29          C33   1.356       .  A
N29          C30   1.356       .  A
N29        C1682   1.438       .  S
C30          C31   1.385       .  A
C30        C1725   1.486       .  S
C31          C32   1.376       .  A
C31          H34   1.082       .  S
C32          C33   1.381       .  A
C32          H35   1.082       .  S
C33        C1697   1.479       .  S
N36          C40   1.360       .  A
N36          C37   1.359       .  A
N36        C1641   1.438       .  S
C37          C38   1.384       .  A
C37        C1738   1.488       .  S
C38          C39   1.374       .  A
C38          H41   1.082       .  S
C39          C40   1.381       .  A
C39          H42   1.082       .  S
C40        C1613   1.487       .  S
N43          C47   1.356       .  A
N43          C44   1.357       .  A
N43        C1557   1.437       .  S
C44          C45   1.386       .  A
C44        C1585   1.487       .  S
C45          C46   1.374       .  A
C45          H48   1.082       .  S
C46          C47   1.379       .  A
C46          H49   1.082       .  S
C47        C1542   1.478       .  S
N50          C54   1.357       .  A
N50          C51   1.357       .  A
N50        C1486   1.436       .  S
C51          C52   1.385       .  A
C51        C1598   1.487       .  S
C52          C53   1.374       .  A
C52          H55   1.082       .  S
C53          C54   1.379       .  A
C53          H56   1.082       .  S
C54        C1501   1.478       .  S
O57          C73   1.277       .  A
O57         Zn63   2.041       .  S
C58        C1570   1.475       .  S
C58          O74   1.275       .  A
C58          O71   1.274       .  A
O59          C72   1.277       .  A
O59         Cd66   2.084       .  S
O60          C78   1.276       .  A
O60         Cd69   2.084       .  S
O61          C75   1.275       .  A
O61         Cd65   2.071       .  S
O62          C73   1.274       .  A
O62         Cd65   2.066       .  S
Zn63         O74   2.023       .  S
Zn63         O76   2.010       .  S
Zn63         O68   1.952       .  S
O64          C75   1.274       .  A
O64         Cd69   2.059       .  S
Cd65         O67   2.071       .  S
Cd65         O68   2.001       .  S
Cd66         O70   2.082       .  S
Cd66         O79   2.095       .  S
Cd66         O68   2.004       .  S
O67          C77   1.275       .  A
O68         Cd69   1.998       .  S
Cd69         O71   2.066       .  S
O70          C77   1.277       .  A
C72        C1417   1.493       .  S
C72          O76   1.274       .  A
C73        C1389   1.492       .  S
C75        C1361   1.487       .  S
C77        C1921   1.492       .  S
C78        C1445   1.503       .  S
C78          O79   1.278       .  A
O80          C96   1.273       .  A
O80         Zn86   2.014       .  S
C81        C1654   1.482       .  S
C81          O97   1.274       .  A
C81          O94   1.275       .  A
O82          C95   1.274       .  A
O82         Cd89   2.073       .  S
O83         C101   1.276       .  A
O83         Cd92   2.080       .  S
O84          C98   1.275       .  A
O84         Cd88   2.072       .  S
O85          C96   1.276       .  A
O85         Cd88   2.076       .  S
Zn86         O97   2.007       .  S
Zn86         O99   2.013       .  S
Zn86         O91   1.940       .  S
O87          C98   1.276       .  A
O87         Cd92   2.069       .  S
Cd88         O90   2.074       .  S
Cd88         O91   2.001       .  S
Cd89         O93   2.071       .  S
Cd89        O102   2.075       .  S
Cd89         O91   1.996       .  S
O90         C100   1.276       .  A
O91         Cd92   2.004       .  S
Cd92         O94   2.071       .  S
O93         C100   1.275       .  A
C95        C1794   1.493       .  S
C95          O99   1.274       .  A
C96        C1277   1.495       .  S
C98        C1990   1.488       .  S
C100       C1333   1.488       .  S
C101       C1318   1.498       .  S
C101        O102   1.276       .  A
N103        C107   1.357       .  A
N103        C104   1.357       .  A
N103       C1234   1.438       .  S
C104        C105   1.383       .  A
C104       C1249   1.483       .  S
C105        C106   1.376       .  A
C105        H108   1.082       .  S
C106        C107   1.381       .  A
C106        H109   1.082       .  S
C107       C1193   1.479       .  S
N110        C114   1.361       .  A
N110        C111   1.361       .  A
N110       C1165   1.443       .  S
C111        C112   1.383       .  A
C111       C1262   1.485       .  S
C112        C113   1.370       .  A
C112        H115   1.082       .  S
C113        C114   1.381       .  A
C113        H116   1.082       .  S
C114       C1150   1.484       .  S
O117        C133   1.277       .  A
O117       Zn123   2.050       .  S
C118       C1081   1.489       .  S
C118        O134   1.277       .  A
C118        O131   1.275       .  A
O119        C132   1.277       .  A
O119       Cd126   2.082       .  S
O120        C138   1.276       .  A
O120       Cd129   2.075       .  S
O121        C135   1.275       .  A
O121       Cd125   2.069       .  S
O122        C133   1.274       .  A
O122       Cd125   2.058       .  S
Zn123       O134   2.040       .  S
Zn123       O136   2.023       .  S
Zn123       O128   1.958       .  S
O124        C135   1.276       .  A
O124       Cd129   2.080       .  S
Cd125       O127   2.071       .  S
Cd125       O128   1.997       .  S
Cd126       O130   2.098       .  S
Cd126       O139   2.088       .  S
Cd126       O128   2.011       .  S
O127        C137   1.274       .  A
O128       Cd129   2.005       .  S
Cd129       O131   2.072       .  S
O130        C137   1.279       .  A
C132       C1514   1.493       .  S
C132        O136   1.275       .  A
C133       C1221   1.490       .  S
C135       C1837   1.486       .  S
C137       C1109   1.494       .  S
C138       C1710   1.494       .  S
C138        O139   1.277       .  A
N140        C144   1.360       .  A
N140        C141   1.361       .  A
N140       C1025   1.440       .  S
C141        C142   1.384       .  A
C141       C1066   1.491       .  S
C142        C143   1.375       .  A
C142        H145   1.082       .  S
C143        C144   1.379       .  A
C143        H146   1.082       .  S
C144       C1458   1.485       .  S
N147        C151   1.359       .  A
N147        C148   1.361       .  A
N147        C969   1.443       .  S
C148        C149   1.382       .  A
C148       C1053   1.483       .  S
C149        C150   1.373       .  A
C149        H152   1.082       .  S
C150        C151   1.381       .  A
C150        H153   1.082       .  S
C151       C1010   1.483       .  S
O154        C170   1.274       .  A
O154       Zn160   2.015       .  S
C155       C1038   1.492       .  S
C155        O171   1.272       .  A
C155        O168   1.277       .  A
O156        C169   1.275       .  A
O156       Cd163   2.082       .  S
O157        C175   1.276       .  A
O157       Cd166   2.078       .  S
O158        C172   1.277       .  A
O158       Cd162   2.083       .  S
O159        C170   1.275       .  A
O159       Cd162   2.068       .  S
Zn160       O171   2.003       .  S
Zn160       O173   2.031       .  S
Zn160       O165   1.945       .  S
O161        C172   1.277       .  A
O161       Cd166   2.081       .  S
Cd162       O164   2.071       .  S
Cd162       O165   2.000       .  S
Cd163       O167   2.082       .  S
Cd163       O176   2.068       .  S
Cd163       O165   1.999       .  S
O164        C174   1.275       .  A
O165       Cd166   2.010       .  S
Cd166       O168   2.079       .  S
O167        C174   1.276       .  A
C169        C885   1.501       .  S
C169        O173   1.275       .  A
C170       C1473   1.475       .  S
C172       C1178   1.494       .  S
C174        C941   1.490       .  S
C175        C913   1.492       .  S
C175        O176   1.277       .  A
N177        C181   1.360       .  A
N177        C178   1.356       .  A
N177        C829   1.441       .  S
C178        C179   1.381       .  A
C178        C857   1.478       .  S
C179        C180   1.372       .  A
C179        H182   1.082       .  S
C180        C181   1.382       .  A
C180        H183   1.082       .  S
C181        C801   1.482       .  S
N184        C188   1.358       .  A
N184        C185   1.357       .  A
N184       C1374   1.439       .  S
C185        C186   1.381       .  A
C185        C870   1.480       .  S
C186        C187   1.374       .  A
C186        H189   1.082       .  S
C187        C188   1.381       .  A
C187        H190   1.082       .  S
C188        C898   1.482       .  S
N191        C195   1.360       .  A
N191        C192   1.358       .  A
N191        C745   1.439       .  S
C192        C193   1.384       .  A
C192        C773   1.489       .  S
C193        C194   1.372       .  A
C193        H196   1.082       .  S
C194        C195   1.381       .  A
C194        H197   1.082       .  S
C195       C1346   1.482       .  S
N198        C202   1.357       .  A
N198        C199   1.357       .  A
N198        C717   1.438       .  S
C199        C200   1.383       .  A
C199        C786   1.482       .  S
C200        C201   1.374       .  A
C200        H203   1.082       .  S
C201        C202   1.381       .  A
C201        H204   1.082       .  S
C202        C689   1.480       .  S
O205        C221   1.277       .  A
O205       Zn211   2.038       .  S
C206        C758   1.490       .  S
C206        O222   1.273       .  A
C206        O219   1.277       .  A
O207        C220   1.277       .  A
O207       Cd214   2.078       .  S
O208        C226   1.276       .  A
O208       Cd217   2.080       .  S
O209        C223   1.277       .  A
O209       Cd213   2.086       .  S
O210        C221   1.276       .  A
O210       Cd213   2.075       .  S
Zn211       O222   2.012       .  S
Zn211       O224   2.024       .  S
Zn211       O216   1.953       .  S
O212        C223   1.277       .  A
O212       Cd217   2.077       .  S
Cd213       O215   2.088       .  S
Cd213       O216   2.002       .  S
Cd214       O218   2.081       .  S
Cd214       O227   2.082       .  S
Cd214       O216   2.002       .  S
O215        C225   1.277       .  A
O216       Cd217   2.009       .  S
Cd217       O219   2.080       .  S
O218        C225   1.277       .  A
C220        C661   1.492       .  S
C220        O224   1.274       .  A
C221       C1906   1.494       .  S
C223        C842   1.492       .  S
C225        C633   1.499       .  S
C226        C997   1.494       .  S
C226        O227   1.277       .  A
N228        C232   1.354       .  A
N228        C229   1.358       .  A
N228        C562   1.441       .  S
C229        C230   1.384       .  A
C229        C618   1.482       .  S
C230        C231   1.374       .  A
C230        H233   1.082       .  S
C231        C232   1.380       .  A
C231        H234   1.082       .  S
C232        C577   1.476       .  S
N235        C239   1.363       .  A
N235        C236   1.359       .  A
N235       C1290   1.446       .  S
C236        C237   1.380       .  A
C236        C605   1.476       .  S
C237        C238   1.368       .  A
C237        H240   1.082       .  S
C238        C239   1.383       .  A
C238        H241   1.082       .  S
C239        C674   1.484       .  S
O242        C258   1.276       .  A
O242       Zn248   2.040       .  S
C243        C982   1.498       .  S
C243        O259   1.276       .  A
C243        O256   1.277       .  A
O244        C257   1.275       .  A
O244       Cd251   2.072       .  S
O245        C263   1.275       .  A
O245       Cd254   2.077       .  S
O246        C260   1.274       .  A
O246       Cd250   2.072       .  S
O247        C258   1.273       .  A
O247       Cd250   2.056       .  S
Zn248       O259   2.033       .  S
Zn248       O261   2.028       .  S
Zn248       O253   1.952       .  S
O249        C260   1.276       .  A
O249       Cd254   2.073       .  S
Cd250       O252   2.064       .  S
Cd250       O253   1.998       .  S
Cd251       O255   2.077       .  S
Cd251       O264   2.075       .  S
Cd251       O253   2.002       .  S
O252        C262   1.273       .  A
O253       Cd254   2.001       .  S
Cd254       O256   2.082       .  S
O255        C262   1.276       .  A
C257        C814   1.492       .  S
C257        O261   1.276       .  A
C258        C730   1.477       .  S
C260        C534   1.490       .  S
C262        C590   1.489       .  S
C263       C1137   1.493       .  S
C263        O264   1.276       .  A
N265        C269   1.361       .  A
N265        C266   1.360       .  A
N265        C465   1.444       .  S
C266        C267   1.381       .  A
C266        C493   1.481       .  S
C267        C268   1.372       .  A
C267        H270   1.082       .  S
C268        C269   1.383       .  A
C268        H271   1.082       .  S
C269       C1122   1.486       .  S
N272        C276   1.356       .  A
N272        C273   1.353       .  A
N272        C521   1.438       .  S
C273        C274   1.382       .  A
C273        C506   1.476       .  S
C274        C275   1.375       .  A
C274        H277   1.082       .  S
C275        C276   1.383       .  A
C275        H278   1.082       .  S
C276        C926   1.480       .  S
O279        C295   1.278       .  A
O279       Zn285   2.039       .  S
C280        C549   1.489       .  S
C280        O296   1.275       .  A
C280        O293   1.275       .  A
O281        C294   1.279       .  A
O281       Cd288   2.092       .  S
O282        C300   1.274       .  A
O282       Cd291   2.078       .  S
O283        C297   1.276       .  A
O283       Cd287   2.074       .  S
O284        C295   1.274       .  A
O284       Cd287   2.073       .  S
Zn285       O296   2.028       .  S
Zn285       O298   2.018       .  S
Zn285       O290   1.953       .  S
O286        C297   1.276       .  A
O286       Cd291   2.073       .  S
Cd287       O289   2.072       .  S
Cd287       O290   2.001       .  S
Cd288       O292   2.086       .  S
Cd288       O301   2.094       .  S
Cd288       O290   2.006       .  S
O289        C299   1.276       .  A
O290       Cd291   2.001       .  S
Cd291       O293   2.065       .  S
O292        C299   1.277       .  A
C294        C702   1.499       .  S
C294        O298   1.274       .  A
C295        C478   1.499       .  S
C297       C1753   1.490       .  S
C299       C1206   1.498       .  S
C300       C1626   1.497       .  S
C300        O301   1.278       .  A
N302        C306   1.361       .  A
N302        C303   1.360       .  A
N302       C1402   1.442       .  S
C303        C304   1.383       .  A
C303        C437   1.487       .  S
C304        C305   1.373       .  A
C304        H307   1.082       .  S
C305        C306   1.381       .  A
C305        H308   1.082       .  S
C306        C646   1.486       .  S
N309        C313   1.353       .  A
N309        C310   1.353       .  A
N309        C409   1.434       .  S
C310        C311   1.383       .  A
C310        C450   1.477       .  S
C311        C312   1.378       .  A
C311        H314   1.082       .  S
C312        C313   1.381       .  A
C312        H315   1.082       .  S
C313       C1305   1.476       .  S
N316        C320   1.358       .  A
N316        C317   1.358       .  A
N316       C1094   1.438       .  S
C317        C318   1.384       .  A
C317        C381   1.484       .  S
C318        C319   1.374       .  A
C318        H321   1.082       .  S
C319        C320   1.382       .  A
C319        H322   1.082       .  S
C320        C954   1.484       .  S
N323        C327   1.355       .  A
N323        C324   1.355       .  A
N323        C353   1.435       .  S
C324        C325   1.384       .  A
C324        C394   1.485       .  S
C325        C326   1.377       .  A
C325        H328   1.082       .  S
C326        C327   1.382       .  A
C326        H329   1.082       .  S
C327       C1430   1.482       .  S
O330        C346   1.276       .  A
O330       Zn336   2.036       .  S
C331        C422   1.484       .  S
C331        O347   1.276       .  A
C331        O344   1.274       .  A
O332        C345   1.276       .  A
O332       Cd339   2.076       .  S
O333        C351   1.273       .  A
O333       Cd342   2.058       .  S
O334        C348   1.274       .  A
O334       Cd338   2.075       .  S
O335        C346   1.274       .  A
O335       Cd338   2.059       .  S
Zn336       O347   2.026       .  S
Zn336       O349   2.034       .  S
Zn336       O341   1.955       .  S
O337        C348   1.274       .  A
O337       Cd342   2.060       .  S
Cd338       O340   2.059       .  S
Cd338       O341   1.996       .  S
Cd339       O343   2.092       .  S
Cd339       O352   2.089       .  S
Cd339       O341   2.005       .  S
O340        C350   1.272       .  A
O341       Cd342   1.995       .  S
Cd342       O344   2.068       .  S
O343        C350   1.279       .  A
C345       C1962   1.494       .  S
C345        O349   1.276       .  A
C346       C1669   1.479       .  S
C348        C366   1.479       .  S
C350       C1822   1.495       .  S
C351       C1529   1.489       .  S
C351        O352   1.278       .  A
C353        C354   1.405       .  A
C353        C358   1.401       .  A
C354        C355   1.402       .  A
C354        N359   1.431       .  S
C355        C356   1.402       .  A
C355        H360   1.084       .  S
C356        C357   1.409       .  A
C356        C361   1.475       .  S
C357        C358   1.403       .  A
C357        N362   1.438       .  S
C358        H363   1.083       .  S
N359        H379   1.046       .  S
N359        H380   1.045       .  S
C361        C364   1.402       .  A
C361        C368   1.406       .  A
N362        H377   1.046       .  S
N362        H378   1.046       .  S
C364        C365   1.407       .  A
C364        H369   1.084       .  S
C365        C366   1.413       .  A
C365        N370   1.437       .  S
C366        C367   1.406       .  A
C367        C368   1.403       .  A
C367        H371   1.084       .  S
C368        N372   1.438       .  S
N370        H373   1.046       .  S
N370        H374   1.045       .  S
N372        H375   1.046       .  S
N372        H376   1.046       .  S
C381        C382   1.411       .  A
C381        C386   1.404       .  A
C382        C383   1.402       .  A
C382        N387   1.438       .  S
C383        C384   1.403       .  A
C383        H388   1.083       .  S
C384        C385   1.415       .  A
C384        C389   1.493       .  S
C385        C386   1.412       .  A
C385        N390   1.437       .  S
C386        H391   1.083       .  S
N387        H407   1.045       .  S
N387        H408   1.046       .  S
C389        C392   1.405       .  A
C389        C396   1.414       .  A
N390        H405   1.046       .  S
N390        H406   1.045       .  S
C392        C393   1.405       .  A
C392        H397   1.083       .  S
C393        C394   1.410       .  A
C393        N398   1.438       .  S
C394        C395   1.403       .  A
C395        C396   1.409       .  A
C395        H399   1.083       .  S
C396        N400   1.437       .  S
N398        H401   1.046       .  S
N398        H402   1.045       .  S
N400        H403   1.046       .  S
N400        H404   1.045       .  S
C409        C410   1.404       .  A
C409        C414   1.400       .  A
C410        C411   1.399       .  A
C410        N415   1.432       .  S
C411        C412   1.404       .  A
C411        H416   1.084       .  S
C412        C413   1.413       .  A
C412        C417   1.485       .  S
C413        C414   1.407       .  A
C413        N418   1.437       .  S
C414        H419   1.083       .  S
N415        H435   1.046       .  S
N415        H436   1.045       .  S
C417        C420   1.403       .  A
C417        C424   1.411       .  A
N418        H433   1.046       .  S
N418        H434   1.045       .  S
C420        C421   1.407       .  A
C420        H425   1.084       .  S
C421        C422   1.415       .  A
C421        N426   1.438       .  S
C422        C423   1.405       .  A
C423        C424   1.403       .  A
C423        H427   1.084       .  S
C424        N428   1.438       .  S
N426        H429   1.046       .  S
N426        H430   1.046       .  S
N428        H431   1.045       .  S
N428        H432   1.046       .  S
C437        C438   1.411       .  A
C437        C442   1.406       .  A
C438        C439   1.402       .  A
C438        N443   1.438       .  S
C439        C440   1.400       .  A
C439        H444   1.084       .  S
C440        C441   1.410       .  A
C440        C445   1.483       .  S
C441        C442   1.413       .  A
C441        N446   1.437       .  S
C442        H447   1.083       .  S
N443        H463   1.046       .  S
N443        H464   1.046       .  S
C445        C448   1.403       .  A
C445        C452   1.409       .  A
N446        H461   1.045       .  S
N446        H462   1.045       .  S
C448        C449   1.402       .  A
C448        H453   1.084       .  S
C449        C450   1.412       .  A
C449        N454   1.432       .  S
C450        C451   1.401       .  A
C451        C452   1.405       .  A
C451        H455   1.084       .  S
C452        N456   1.432       .  S
N454        H457   1.044       .  S
N454        H458   1.046       .  S
N456        H459   1.046       .  S
N456        H460   1.046       .  S
C465        C466   1.412       .  A
C465        C470   1.404       .  A
C466        C467   1.408       .  A
C466        N471   1.436       .  S
C467        C468   1.402       .  A
C467        H472   1.084       .  S
C468        C469   1.409       .  A
C468        C473   1.483       .  S
C469        C470   1.405       .  A
C469        N474   1.437       .  S
C470        H475   1.083       .  S
N471        H491   1.045       .  S
N471        H492   1.045       .  S
C473        C476   1.399       .  A
C473        C480   1.407       .  A
N474        H489   1.045       .  S
N474        H490   1.046       .  S
C476        C477   1.408       .  A
C476        H481   1.084       .  S
C477        C478   1.422   1_655  A
C477        N482   1.438   1_655  S
C478        C479   1.410       .  A
C479        C480   1.407   1_455  A
C479        H483   1.083       .  S
C480        N484   1.438       .  S
N482        H485   1.046   1_455  S
N482        H486   1.046       .  S
N484        H487   1.045   1_655  S
N484        H488   1.046       .  S
C493        C494   1.413       .  A
C493        C498   1.403       .  A
C494        C495   1.403       .  A
C494        N499   1.432       .  S
C495        C496   1.403       .  A
C495        H500   1.084       .  S
C496        C497   1.410       .  A
C496        C501   1.480       .  S
C497        C498   1.403       .  A
C497        N502   1.439       .  S
C498        H503   1.084       .  S
N499        H519   1.045       .  S
N499        H520   1.044       .  S
C501        C504   1.401       .  A
C501        C508   1.410   1_565  A
N502        H517   1.046       .  S
N502        H518   1.044       .  S
C504        C505   1.397   1_565  A
C504        H509   1.084       .  S
C505        C506   1.413       .  A
C505        N510   1.438       .  S
C506        C507   1.404       .  A
C507        C508   1.410       .  A
C507        H511   1.084       .  S
C508        N512   1.438       .  S
N510        H513   1.046       .  S
N510        H514   1.043       .  S
N512        H515   1.046       .  S
N512        H516   1.044       .  S
C521        C522   1.404       .  A
C521        C526   1.402       .  A
C522        C523   1.400       .  A
C522        N527   1.431       .  S
C523        C524   1.404       .  A
C523        H528   1.084       .  S
C524        C525   1.412       .  A
C524        C529   1.486       .  S
C525        C526   1.408       .  A
C525        N530   1.437       .  S
C526        H531   1.083       .  S
N527        H547   1.046       .  S
N527        H548   1.045       .  S
C529        C532   1.403       .  A
C529        C536   1.409       .  A
N530        H545   1.046       .  S
N530        H546   1.045       .  S
C532        C533   1.409   1_655  A
C532        H537   1.084       .  S
C533        C534   1.418       .  A
C533        N538   1.438       .  S
C534        C535   1.407       .  A
C535        C536   1.403   1_455  A
C535        H539   1.083       .  S
C536        N540   1.438       .  S
N538        H541   1.045       .  S
N538        H542   1.045       .  S
N540        H543   1.046       .  S
N540        H544   1.046       .  S
C549        C550   1.418       .  A
C549        C554   1.407       .  A
C550        C551   1.407       .  A
C550        N555   1.438       .  S
C551        C552   1.402       .  A
C551        H556   1.084       .  S
C552        C553   1.408       .  A
C552        C557   1.484   1_565  S
C553        C554   1.404       .  A
C553        N558   1.438       .  S
C554        H559   1.083       .  S
N555        H575   1.045       .  S
N555        H576   1.045       .  S
C557        C560   1.404       .  A
C557        C564   1.410       .  A
N558        H573   1.045       .  S
N558        H574   1.046       .  S
C560        C561   1.406       .  A
C560        H565   1.084       .  S
C561        C562   1.409       .  A
C561        N566   1.436       .  S
C562        C563   1.403       .  A
C563        C564   1.403       .  A
C563        H567   1.083       .  S
C564        N568   1.438   1_545  S
N566        H569   1.045       .  S
N566        H570   1.046       .  S
N568        H571   1.045   1_565  S
N568        H572   1.046       .  S
C577        C578   1.414       .  A
C577        C582   1.401       .  A
C578        C579   1.399       .  A
C578        N583   1.439       .  S
C579        C580   1.403       .  A
C579        H584   1.084       .  S
C580        C581   1.418       .  A
C580        C585   1.481       .  S
C581        C582   1.402       .  A
C581        N586   1.439       .  S
C582        H587   1.084       .  S
N583        H603   1.044       .  S
N583        H604   1.045       .  S
C585        C588   1.400       .  A
C585        C592   1.409       .  A
N586        H601   1.046       .  S
N586        H602   1.041       .  S
C588        C589   1.405       .  A
C588        H593   1.084       .  S
C589        C590   1.417       .  A
C589        N594   1.432       .  S
C590        C591   1.406       .  A
C591        C592   1.404       .  A
C591        H595   1.083       .  S
C592        N596   1.438       .  S
N594        H597   1.046       .  S
N594        H598   1.046       .  S
N596        H599   1.045       .  S
N596        H600   1.046       .  S
C605        C606   1.409       .  A
C605        C610   1.404       .  A
C606        C607   1.400       .  A
C606        N611   1.438       .  S
C607        C608   1.400       .  A
C607        H612   1.084       .  S
C608        C609   1.410       .  A
C608        C613   1.478       .  S
C609        C610   1.411       .  A
C609        N614   1.437       .  S
C610        H615   1.084       .  S
N611        H631   1.045       .  S
N611        H632   1.046       .  S
C613        C616   1.401       .  A
C613        C620   1.409       .  A
N614        H629   1.046       .  S
N614        H630   1.045       .  S
C616        C617   1.409       .  A
C616        H621   1.083       .  S
C617        C618   1.412       .  A
C617        N622   1.437       .  S
C618        C619   1.403       .  A
C619        C620   1.402       .  A
C619        H623   1.084       .  S
C620        N624   1.438       .  S
N622        H625   1.046       .  S
N622        H626   1.045       .  S
N624        H627   1.045       .  S
N624        H628   1.046       .  S
C633        C634   1.419       .  A
C633        C638   1.408       .  A
C634        C635   1.410       .  A
C634        N639   1.438       .  S
C635        C636   1.404       .  A
C635        H640   1.083       .  S
C636        C637   1.413       .  A
C636        C641   1.497       .  S
C637        C638   1.408       .  A
C637        N642   1.438       .  S
C638        H643   1.083       .  S
N639        H659   1.046       .  S
N639        H660   1.046       .  S
C641        C644   1.404       .  A
C641        C648   1.416       .  A
N642        H657   1.045       .  S
N642        H658   1.046       .  S
C644        C645   1.406       .  A
C644        H649   1.084       .  S
C645        C646   1.411       .  A
C645        N650   1.438       .  S
C646        C647   1.402       .  A
C647        C648   1.411       .  A
C647        H651   1.084       .  S
C648        N652   1.437       .  S
N650        H653   1.046       .  S
N650        H654   1.045       .  S
N652        H655   1.045       .  S
N652        H656   1.046       .  S
C661        C662   1.419       .  A
C661        C666   1.406       .  A
C662        C663   1.410       .  A
C662        N667   1.438       .  S
C663        C664   1.401       .  A
C663        H668   1.084       .  S
C664        C665   1.411       .  A
C664        C669   1.487       .  S
C665        C666   1.405       .  A
C665        N670   1.438       .  S
C666        H671   1.083       .  S
N667        H687   1.046       .  S
N667        H688   1.046       .  S
C669        C672   1.401       .  A
C669        C676   1.413       .  A
N670        H685   1.045       .  S
N670        H686   1.046       .  S
C672        C673   1.402       .  A
C672        H677   1.084       .  S
C673        C674   1.412       .  A
C673        N678   1.438       .  S
C674        C675   1.404       .  A
C675        C676   1.411       .  A
C675        H679   1.083       .  S
C676        N680   1.437       .  S
N678        H681   1.045       .  S
N678        H682   1.046       .  S
N680        H683   1.046       .  S
N680        H684   1.045       .  S
C689        C690   1.407       .  A
C689        C694   1.403       .  A
C690        C691   1.406       .  A
C690        N695   1.432       .  S
C691        C692   1.403       .  A
C691        H696   1.084       .  S
C692        C693   1.410       .  A
C692        C697   1.482       .  S
C693        C694   1.406       .  A
C693        N698   1.438       .  S
C694        H699   1.084       .  S
N695        H715   1.046       .  S
N695        H716   1.046       .  S
C697        C700   1.398       .  A
C697        C704   1.407       .  A
N698        H713   1.045       .  S
N698        H714   1.046       .  S
C700        C701   1.410       .  A
C700        H705   1.084       .  S
C701        C702   1.424       .  A
C701        N706   1.438       .  S
C702        C703   1.408       .  A
C703        C704   1.406       .  A
C703        H707   1.083       .  S
C704        N708   1.438       .  S
N706        H709   1.046       .  S
N706        H710   1.046       .  S
N708        H711   1.045       .  S
N708        H712   1.045       .  S
C717        C718   1.407       .  A
C717        C722   1.402       .  A
C718        C719   1.403       .  A
C718        N723   1.431       .  S
C719        C720   1.402       .  A
C719        H724   1.084       .  S
C720        C721   1.409       .  A
C720        C725   1.478       .  S
C721        C722   1.405       .  A
C721        N726   1.437       .  S
C722        H727   1.083       .  S
N723        H743   1.046       .  S
N723        H744   1.046       .  S
C725        C728   1.403   1_565  A
C725        C732   1.407   1_565  A
N726        H741   1.046       .  S
N726        H742   1.046       .  S
C728        C729   1.409       .  A
C728        H733   1.084       .  S
C729        C730   1.411       .  A
C729        N734   1.437       .  S
C730        C731   1.404       .  A
C731        C732   1.403       .  A
C731        H735   1.084       .  S
C732        N736   1.438   1_545  S
N734        H737   1.046       .  S
N734        H738   1.045       .  S
N736        H739   1.046   1_565  S
N736        H740   1.045       .  S
C745        C746   1.412       .  A
C745        C750   1.402       .  A
C746        C747   1.395       .  A
C746        N751   1.431       .  S
C747        C748   1.400       .  A
C747        H752   1.084       .  S
C748        C749   1.417       .  A
C748        C753   1.478       .  S
C749        C750   1.403       .  A
C749        N754   1.438       .  S
C750        H755   1.083       .  S
N751        H771   1.051       .  S
N751        H772   1.034       .  S
C753        C756   1.398       .  A
C753        C760   1.407   1_565  A
N754        H769   1.046       .  S
N754        H770   1.043       .  S
C756        C757   1.404   1_565  A
C756        H761   1.084       .  S
C757        C758   1.420       .  A
C757        N762   1.438       .  S
C758        C759   1.408       .  A
C759        C760   1.407       .  A
C759        H763   1.083       .  S
C760        N764   1.438   1_545  S
N762        H765   1.046       .  S
N762        H766   1.045       .  S
N764        H767   1.045   1_565  S
N764        H768   1.045       .  S
C773        C774   1.410       .  A
C773        C778   1.402       .  A
C774        C775   1.407       .  A
C774        N779   1.430       .  S
C775        C776   1.408   1_556  A
C775        H780   1.084   1_556  S
C776        C777   1.416   1_554  A
C776        C781   1.497       .  S
C777        C778   1.402       .  A
C777        N782   1.439       .  S
C778        H783   1.084       .  S
N779        H799   1.046       .  S
N779        H800   1.045       .  S
C781        C784   1.408       .  A
C781        C788   1.416       .  A
N782        H797   1.045       .  S
N782        H798   1.046   1_556  S
C784        C785   1.409       .  A
C784        H789   1.083       .  S
C785        C786   1.410       .  A
C785        N790   1.437       .  S
C786        C787   1.400       .  A
C787        C788   1.403       .  A
C787        H791   1.084       .  S
C788        N792   1.438       .  S
N790        H793   1.046       .  S
N790        H794   1.045       .  S
N792        H795   1.045       .  S
N792        H796   1.046       .  S
C801        C802   1.408       .  A
C801        C806   1.403       .  A
C802        C803   1.406       .  A
C802        N807   1.431       .  S
C803        C804   1.405       .  A
C803        H808   1.084       .  S
C804        C805   1.410       .  A
C804        C809   1.487       .  S
C805        C806   1.404       .  A
C805        N810   1.438       .  S
C806        H811   1.084       .  S
N807        H827   1.046       .  S
N807        H828   1.046       .  S
C809        C812   1.403       .  A
C809        C816   1.408       .  A
N810        H825   1.046       .  S
N810        H826   1.046       .  S
C812        C813   1.403       .  A
C812        H817   1.084       .  S
C813        C814   1.415       .  A
C813        N818   1.433       .  S
C814        C815   1.410       .  A
C815        C816   1.408       .  A
C815        H819   1.083       .  S
C816        N820   1.437       .  S
N818        H821   1.046       .  S
N818        H822   1.045       .  S
N820        H823   1.046       .  S
N820        H824   1.046       .  S
C829        C830   1.408       .  A
C829        C834   1.403       .  A
C830        C831   1.406       .  A
C830        N835   1.436       .  S
C831        C832   1.405       .  A
C831        H836   1.084       .  S
C832        C833   1.411       .  A
C832        C837   1.488       .  S
C833        C834   1.407       .  A
C833        N838   1.437       .  S
C834        H839   1.083       .  S
N835        H855   1.046       .  S
N835        H856   1.045       .  S
C837        C840   1.403   1_554  A
C837        C844   1.410       .  A
N838        H853   1.046       .  S
N838        H854   1.046       .  S
C840        C841   1.410       .  A
C840        H845   1.084       .  S
C841        C842   1.417       .  A
C841        N846   1.438       .  S
C842        C843   1.407       .  A
C843        C844   1.406   1_556  A
C843        H847   1.083       .  S
C844        N848   1.438       .  S
N846        H849   1.046       .  S
N846        H850   1.046       .  S
N848        H851   1.046       .  S
N848        H852   1.046       .  S
C857        C858   1.408       .  A
C857        C862   1.404       .  A
C858        C859   1.402       .  A
C858        N863   1.438       .  S
C859        C860   1.401       .  A
C859        H864   1.084       .  S
C860        C861   1.411       .  A
C860        C865   1.481       .  S
C861        C862   1.411       .  A
C861        N866   1.437       .  S
C862        H867   1.084       .  S
N863        H883   1.045       .  S
N863        H884   1.046       .  S
C865        C868   1.403       .  A
C865        C872   1.410       .  A
N866        H881   1.045       .  S
N866        H882   1.045       .  S
C868        C869   1.411       .  A
C868        H873   1.083       .  S
C869        C870   1.411       .  A
C869        N874   1.437       .  S
C870        C871   1.401       .  A
C871        C872   1.402       .  A
C871        H875   1.084       .  S
C872        N876   1.439       .  S
N874        H877   1.045       .  S
N874        H878   1.046       .  S
N876        H879   1.045       .  S
N876        H880   1.045       .  S
C885        C886   1.420       .  A
C885        C890   1.411       .  A
C886        C887   1.408       .  A
C886        N891   1.438       .  S
C887        C888   1.403       .  A
C887        H892   1.084       .  S
C888        C889   1.409       .  A
C888        C893   1.493       .  S
C889        C890   1.410       .  A
C889        N894   1.438       .  S
C890        H895   1.083       .  S
N891        H911   1.045       .  S
N891        H912   1.046       .  S
C893        C896   1.407       .  A
C893        C900   1.412       .  A
N894        H909   1.046       .  S
N894        H910   1.045       .  S
C896        C897   1.410       .  A
C896        H901   1.083       .  S
C897        C898   1.410       .  A
C897        N902   1.438       .  S
C898        C899   1.402       .  A
C899        C900   1.405       .  A
C899        H903   1.084       .  S
C900        N904   1.438       .  S
N902        H905   1.046       .  S
N902        H906   1.045       .  S
N904        H907   1.046       .  S
N904        H908   1.046       .  S
C913        C914   1.420       .  A
C913        C918   1.407       .  A
C914        C915   1.410       .  A
C914        N919   1.438       .  S
C915        C916   1.402       .  A
C915        H920   1.084       .  S
C916        C917   1.408       .  A
C916        C921   1.484       .  S
C917        C918   1.401       .  A
C917        N922   1.438       .  S
C918        H923   1.083       .  S
N919        H939   1.046       .  S
N919        H940   1.046       .  S
C921        C924   1.402       .  A
C921        C928   1.410       .  A
N922        H937   1.046       .  S
N922        H938   1.046       .  S
C924        C925   1.398       .  A
C924        H929   1.084       .  S
C925        C926   1.415       .  A
C925        N930   1.438       .  S
C926        C927   1.404       .  A
C927        C928   1.409       .  A
C927        H931   1.084       .  S
C928        N932   1.437       .  S
N930        H933   1.045       .  S
N930        H934   1.043       .  S
N932        H935   1.046       .  S
N932        H936   1.046       .  S
C941        C942   1.417       .  A
C941        C946   1.408       .  A
C942        C943   1.408       .  A
C942        N947   1.438       .  S
C943        C944   1.401       .  A
C943        H948   1.084       .  S
C944        C945   1.406       .  A
C944        C949   1.480       .  S
C945        C946   1.406       .  A
C945        N950   1.437       .  S
C946        H951   1.083       .  S
N947        H967   1.046       .  S
N947        H968   1.045       .  S
C949        C952   1.400       .  A
C949        C956   1.409       .  A
N950        H965   1.045       .  S
N950        H966   1.046       .  S
C952        C953   1.405       .  A
C952        H957   1.084       .  S
C953        C954   1.412       .  A
C953        N958   1.438       .  S
C954        C955   1.404       .  A
C955        C956   1.407       .  A
C955        H959   1.083       .  S
C956        N960   1.437       .  S
N958        H961   1.046       .  S
N958        H962   1.045       .  S
N960        H963   1.046       .  S
N960        H964   1.046       .  S
C969        C970   1.411       .  A
C969        C974   1.403       .  A
C970        C971   1.410       .  A
C970        N975   1.436       .  S
C971        C972   1.403       .  A
C971        H976   1.084       .  S
C972        C973   1.409       .  A
C972        C977   1.484   1_556  S
C973        C974   1.405       .  A
C973        N978   1.438   1_556  S
C974        H979   1.083       .  S
N975        H995   1.045       .  S
N975        H996   1.046       .  S
C977        C980   1.400       .  A
C977        C984   1.407       .  A
N978        H993   1.046   1_554  S
N978        H994   1.045       .  S
C980        C981   1.409       .  A
C980        H985   1.084       .  S
C981        C982   1.420       .  A
C981        N986   1.438       .  S
C982        C983   1.410       .  A
C983        C984   1.408       .  A
C983        H987   1.083       .  S
C984        N988   1.438       .  S
N986        H989   1.046       .  S
N986        H990   1.046       .  S
N988        H991   1.045       .  S
N988        H992   1.046       .  S
C997        C998   1.420       .  A
C997       C1002   1.407       .  A
C998        C999   1.411       .  A
C998       N1003   1.438       .  S
C999       C1000   1.401       .  A
C999       H1004   1.084       .  S
C1000      C1001   1.408       .  A
C1000      C1005   1.484       .  S
C1001      C1002   1.406       .  A
C1001      N1006   1.438       .  S
C1002      H1007   1.083       .  S
N1003      H1023   1.046       .  S
N1003      H1024   1.046       .  S
C1005      C1008   1.400       .  A
C1005      C1012   1.410       .  A
N1006      H1021   1.045       .  S
N1006      H1022   1.046       .  S
C1008      C1009   1.401       .  A
C1008      H1013   1.084       .  S
C1009      C1010   1.417       .  A
C1009      N1014   1.438       .  S
C1010      C1011   1.404       .  A
C1011      C1012   1.410       .  A
C1011      H1015   1.084       .  S
C1012      N1016   1.437       .  S
N1014      H1017   1.045       .  S
N1014      H1018   1.044       .  S
N1016      H1019   1.046       .  S
N1016      H1020   1.045       .  S
C1025      C1026   1.412       .  A
C1025      C1030   1.402       .  A
C1026      C1027   1.406       .  A
C1026      N1031   1.437       .  S
C1027      C1028   1.401       .  A
C1027      H1032   1.084       .  S
C1028      C1029   1.408       .  A
C1028      C1033   1.477   1_556  S
C1029      C1030   1.403       .  A
C1029      N1034   1.438       .  S
C1030      H1035   1.082       .  S
N1031      H1051   1.045       .  S
N1031      H1052   1.045       .  S
C1033      C1036   1.397       .  A
C1033      C1040   1.406       .  A
N1034      H1049   1.046       .  S
N1034      H1050   1.046   1_556  S
C1036      C1037   1.404       .  A
C1036      H1041   1.084       .  S
C1037      C1038   1.421       .  A
C1037      N1042   1.438       .  S
C1038      C1039   1.410       .  A
C1039      C1040   1.406       .  A
C1039      H1043   1.083       .  S
C1040      N1044   1.438       .  S
N1042      H1045   1.046       .  S
N1042      H1046   1.046       .  S
N1044      H1047   1.046       .  S
N1044      H1048   1.046       .  S
C1053      C1054   1.411       .  A
C1053      C1058   1.402       .  A
C1054      C1055   1.413       .  A
C1054      N1059   1.437       .  S
C1055      C1056   1.405   1_455  A
C1055      H1060   1.083   1_455  S
C1056      C1057   1.411       .  A
C1056      C1061   1.488       .  S
C1057      C1058   1.406   1_655  A
C1057      N1062   1.438       .  S
C1058      H1063   1.084       .  S
N1059      H1079   1.045       .  S
N1059      H1080   1.045       .  S
C1061      C1064   1.401       .  A
C1061      C1068   1.412       .  A
N1062      H1077   1.046       .  S
N1062      H1078   1.044       .  S
C1064      C1065   1.405       .  A
C1064      H1069   1.084       .  S
C1065      C1066   1.413       .  A
C1065      N1070   1.438       .  S
C1066      C1067   1.406       .  A
C1067      C1068   1.413       .  A
C1067      H1071   1.083       .  S
C1068      N1072   1.437       .  S
N1070      H1073   1.046       .  S
N1070      H1074   1.045       .  S
N1072      H1075   1.046       .  S
N1072      H1076   1.044       .  S
C1081      C1082   1.416       .  A
C1081      C1086   1.408       .  A
C1082      C1083   1.407       .  A
C1082      N1087   1.438       .  S
C1083      C1084   1.400       .  A
C1083      H1088   1.084       .  S
C1084      C1085   1.408       .  A
C1084      C1089   1.480       .  S
C1085      C1086   1.408       .  A
C1085      N1090   1.438       .  S
C1086      H1091   1.083       .  S
N1087      H1107   1.046       .  S
N1087      H1108   1.045       .  S
C1089      C1092   1.403       .  A
C1089      C1096   1.408       .  A
N1090      H1105   1.046       .  S
N1090      H1106   1.045       .  S
C1092      C1093   1.408       .  A
C1092      H1097   1.084       .  S
C1093      C1094   1.409       .  A
C1093      N1098   1.436       .  S
C1094      C1095   1.401       .  A
C1095      C1096   1.404       .  A
C1095      H1099   1.083       .  S
C1096      N1100   1.437       .  S
N1098      H1101   1.046       .  S
N1098      H1102   1.044       .  S
N1100      H1103   1.046       .  S
N1100      H1104   1.045       .  S
C1109      C1110   1.421       .  A
C1109      C1114   1.406       .  A
C1110      C1111   1.410       .  A
C1110      N1115   1.438       .  S
C1111      C1112   1.400       .  A
C1111      H1116   1.084       .  S
C1112      C1113   1.409       .  A
C1112      C1117   1.485       .  S
C1113      C1114   1.407       .  A
C1113      N1118   1.438       .  S
C1114      H1119   1.083       .  S
N1115      H1135   1.046       .  S
N1115      H1136   1.045       .  S
C1117      C1120   1.401       .  A
C1117      C1124   1.410       .  A
N1118      H1133   1.046       .  S
N1118      H1134   1.045       .  S
C1120      C1121   1.405       .  A
C1120      H1125   1.084       .  S
C1121      C1122   1.413       .  A
C1121      N1126   1.438       .  S
C1122      C1123   1.404       .  A
C1123      C1124   1.409       .  A
C1123      H1127   1.083       .  S
C1124      N1128   1.437       .  S
N1126      H1129   1.045       .  S
N1126      H1130   1.046       .  S
N1128      H1131   1.045       .  S
N1128      H1132   1.046       .  S
C1137      C1138   1.419       .  A
C1137      C1142   1.407       .  A
C1138      C1139   1.409       .  A
C1138      N1143   1.438       .  S
C1139      C1140   1.401       .  A
C1139      H1144   1.084       .  S
C1140      C1141   1.410       .  A
C1140      C1145   1.486       .  S
C1141      C1142   1.404       .  A
C1141      N1146   1.438       .  S
C1142      H1147   1.083       .  S
N1143      H1163   1.045       .  S
N1143      H1164   1.046       .  S
C1145      C1148   1.401       .  A
C1145      C1152   1.412       .  A
N1146      H1161   1.046       .  S
N1146      H1162   1.045       .  S
C1148      C1149   1.397       .  A
C1148      H1153   1.084       .  S
C1149      C1150   1.415       .  A
C1149      N1154   1.433       .  S
C1150      C1151   1.404       .  A
C1151      C1152   1.410       .  A
C1151      H1155   1.084       .  S
C1152      N1156   1.437       .  S
N1154      H1157   1.043       .  S
N1154      H1158   1.045       .  S
N1156      H1159   1.046       .  S
N1156      H1160   1.046       .  S
C1165      C1166   1.407       .  A
C1165      C1170   1.404       .  A
C1166      C1167   1.402   1_455  A
C1166      N1171   1.431       .  S
C1167      C1168   1.402       .  A
C1167      H1172   1.084       .  S
C1168      C1169   1.412   1_655  A
C1168      C1173   1.487       .  S
C1169      C1170   1.411       .  A
C1169      N1174   1.437   1_455  S
C1170      H1175   1.083       .  S
N1171      H1191   1.046       .  S
N1171      H1192   1.046       .  S
C1173      C1176   1.402       .  A
C1173      C1180   1.409       .  A
N1174      H1189   1.046   1_655  S
N1174      H1190   1.046       .  S
C1176      C1177   1.409       .  A
C1176      H1181   1.084       .  S
C1177      C1178   1.418       .  A
C1177      N1182   1.437       .  S
C1178      C1179   1.408       .  A
C1179      C1180   1.407       .  A
C1179      H1183   1.083       .  S
C1180      N1184   1.438       .  S
N1182      H1185   1.046       .  S
N1182      H1186   1.046       .  S
N1184      H1187   1.045       .  S
N1184      H1188   1.046       .  S
C1193      C1194   1.410       .  A
C1193      C1198   1.401       .  A
C1194      C1195   1.410       .  A
C1194      N1199   1.437       .  S
C1195      C1196   1.405       .  A
C1195      H1200   1.083       .  S
C1196      C1197   1.411       .  A
C1196      C1201   1.488       .  S
C1197      C1198   1.405       .  A
C1197      N1202   1.438       .  S
C1198      H1203   1.084       .  S
N1199      H1219   1.046       .  S
N1199      H1220   1.045       .  S
C1201      C1204   1.402       .  A
C1201      C1208   1.407       .  A
N1202      H1217   1.046       .  S
N1202      H1218   1.045       .  S
C1204      C1205   1.407       .  A
C1204      H1209   1.084       .  S
C1205      C1206   1.419       .  A
C1205      N1210   1.438       .  S
C1206      C1207   1.412       .  A
C1207      C1208   1.408       .  A
C1207      H1211   1.083       .  S
C1208      N1212   1.437       .  S
N1210      H1213   1.046       .  S
N1210      H1214   1.045       .  S
N1212      H1215   1.046       .  S
N1212      H1216   1.045       .  S
C1221      C1222   1.416       .  A
C1221      C1226   1.407       .  A
C1222      C1223   1.412       .  A
C1222      N1227   1.437       .  S
C1223      C1224   1.405       .  A
C1223      H1228   1.084       .  S
C1224      C1225   1.408       .  A
C1224      C1229   1.487       .  S
C1225      C1226   1.403       .  A
C1225      N1230   1.438       .  S
C1226      H1231   1.084       .  S
N1227      H1247   1.045       .  S
N1227      H1248   1.046       .  S
C1229      C1232   1.404       .  A
C1229      C1236   1.411   1_655  A
N1230      H1245   1.046       .  S
N1230      H1246   1.045       .  S
C1232      C1233   1.400   1_655  A
C1232      H1237   1.084       .  S
C1233      C1234   1.414       .  A
C1233      N1238   1.437       .  S
C1234      C1235   1.402       .  A
C1235      C1236   1.408       .  A
C1235      H1239   1.083       .  S
C1236      N1240   1.437   1_455  S
N1238      H1241   1.045       .  S
N1238      H1242   1.043       .  S
N1240      H1243   1.046   1_655  S
N1240      H1244   1.046       .  S
C1249      C1250   1.411       .  A
C1249      C1254   1.402       .  A
C1250      C1251   1.412       .  A
C1250      N1255   1.437       .  S
C1251      C1252   1.403       .  A
C1251      H1256   1.083       .  S
C1252      C1253   1.411       .  A
C1252      C1257   1.486       .  S
C1253      C1254   1.405       .  A
C1253      N1258   1.438       .  S
C1254      H1259   1.084       .  S
N1255      H1275   1.045       .  S
N1255      H1276   1.046       .  S
C1257      C1260   1.400       .  A
C1257      C1264   1.411       .  A
N1258      H1273   1.046       .  S
N1258      H1274   1.045       .  S
C1260      C1261   1.403       .  A
C1260      H1265   1.084       .  S
C1261      C1262   1.412       .  A
C1261      N1266   1.438       .  S
C1262      C1263   1.405       .  A
C1263      C1264   1.414       .  A
C1263      H1267   1.083       .  S
C1264      N1268   1.437       .  S
N1266      H1269   1.045       .  S
N1266      H1270   1.046       .  S
N1268      H1271   1.046       .  S
N1268      H1272   1.045       .  S
C1277      C1278   1.421       .  A
C1277      C1282   1.409       .  A
C1278      C1279   1.408       .  A
C1278      N1283   1.438       .  S
C1279      C1280   1.399       .  A
C1279      H1284   1.084       .  S
C1280      C1281   1.406       .  A
C1280      C1285   1.481       .  S
C1281      C1282   1.405       .  A
C1281      N1286   1.438       .  S
C1282      H1287   1.083       .  S
N1283      H1303   1.045       .  S
N1283      H1304   1.046       .  S
C1285      C1288   1.400   1_565  A
C1285      C1292   1.408   1_565  A
N1286      H1301   1.046       .  S
N1286      H1302   1.046       .  S
C1288      C1289   1.404       .  A
C1288      H1293   1.084   1_545  S
C1289      C1290   1.412       .  A
C1289      N1294   1.436       .  S
C1290      C1291   1.406       .  A
C1291      C1292   1.408       .  A
C1291      H1295   1.081       .  S
C1292      N1296   1.437       .  S
N1294      H1297   1.046       .  S
N1294      H1298   1.045       .  S
N1296      H1299   1.045       .  S
N1296      H1300   1.046       .  S
C1305      C1306   1.407       .  A
C1305      C1310   1.400       .  A
C1306      C1307   1.406       .  A
C1306      N1311   1.432       .  S
C1307      C1308   1.403       .  A
C1307      H1312   1.084       .  S
C1308      C1309   1.411       .  A
C1308      C1313   1.484       .  S
C1309      C1310   1.405       .  A
C1309      N1314   1.437       .  S
C1310      H1315   1.084       .  S
N1311      H1331   1.046       .  S
N1311      H1332   1.045       .  S
C1313      C1316   1.399       .  A
C1313      C1320   1.407       .  A
N1314      H1329   1.046       .  S
N1314      H1330   1.045       .  S
C1316      C1317   1.403       .  A
C1316      H1321   1.084       .  S
C1317      C1318   1.420       .  A
C1317      N1322   1.438       .  S
C1318      C1319   1.413       .  A
C1319      C1320   1.410       .  A
C1319      H1323   1.083       .  S
C1320      N1324   1.437       .  S
N1322      H1325   1.045       .  S
N1322      H1326   1.046       .  S
N1324      H1327   1.045       .  S
N1324      H1328   1.046       .  S
C1333      C1334   1.417       .  A
C1333      C1338   1.408       .  A
C1334      C1335   1.405       .  A
C1334      N1339   1.438       .  S
C1335      C1336   1.400       .  A
C1335      H1340   1.084       .  S
C1336      C1337   1.406       .  A
C1336      C1341   1.478       .  S
C1337      C1338   1.406       .  A
C1337      N1342   1.437       .  S
C1338      H1343   1.083       .  S
N1339      H1359   1.046       .  S
N1339      H1360   1.045       .  S
C1341      C1344   1.399       .  A
C1341      C1348   1.409       .  A
N1342      H1357   1.045       .  S
N1342      H1358   1.046       .  S
C1344      C1345   1.396       .  A
C1344      H1349   1.084       .  S
C1345      C1346   1.417       .  A
C1345      N1350   1.434       .  S
C1346      C1347   1.405       .  A
C1347      C1348   1.408       .  A
C1347      H1351   1.083       .  S
C1348      N1352   1.437       .  S
N1350      H1353   1.053       .  S
N1350      H1354   1.034       .  S
N1352      H1355   1.046       .  S
N1352      H1356   1.045       .  S
C1361      C1362   1.418       .  A
C1361      C1366   1.408       .  A
C1362      C1363   1.403   1_556  A
C1362      N1367   1.439       .  S
C1363      C1364   1.399       .  A
C1363      H1368   1.084       .  S
C1364      C1365   1.408   1_554  A
C1364      C1369   1.480       .  S
C1365      C1366   1.407       .  A
C1365      N1370   1.438       .  S
C1366      H1371   1.083       .  S
N1367      H1387   1.045       .  S
N1367      H1388   1.046       .  S
C1369      C1372   1.402       .  A
C1369      C1376   1.411       .  A
N1370      H1385   1.046       .  S
N1370      H1386   1.045   1_556  S
C1372      C1373   1.404       .  A
C1372      H1377   1.084       .  S
C1373      C1374   1.408       .  A
C1373      N1378   1.431       .  S
C1374      C1375   1.401       .  A
C1375      C1376   1.403       .  A
C1375      H1379   1.083       .  S
C1376      N1380   1.438       .  S
N1378      H1381   1.046       .  S
N1378      H1382   1.046       .  S
N1380      H1383   1.046       .  S
N1380      H1384   1.045       .  S
C1389      C1390   1.418       .  A
C1389      C1394   1.408       .  A
C1390      C1391   1.405       .  A
C1390      N1395   1.438       .  S
C1391      C1392   1.401       .  A
C1391      H1396   1.084       .  S
C1392      C1393   1.412       .  A
C1392      C1397   1.490       .  S
C1393      C1394   1.410       .  A
C1393      N1398   1.438       .  S
C1394      H1399   1.083       .  S
N1395      H1415   1.046       .  S
N1395      H1416   1.046       .  S
C1397      C1400   1.404       .  A
C1397      C1404   1.414       .  A
N1398      H1413   1.045       .  S
N1398      H1414   1.046       .  S
C1400      C1401   1.405       .  A
C1400      H1405   1.084       .  S
C1401      C1402   1.409       .  A
C1401      N1406   1.431       .  S
C1402      C1403   1.401       .  A
C1403      C1404   1.406       .  A
C1403      H1407   1.083       .  S
C1404      N1408   1.438       .  S
N1406      H1409   1.045       .  S
N1406      H1410   1.046       .  S
N1408      H1411   1.045       .  S
N1408      H1412   1.046       .  S
C1417      C1418   1.418       .  A
C1417      C1422   1.412       .  A
C1418      C1419   1.406       .  A
C1418      N1423   1.438       .  S
C1419      C1420   1.400       .  A
C1419      H1424   1.084       .  S
C1420      C1421   1.404       .  A
C1420      C1425   1.479       .  S
C1421      C1422   1.406       .  A
C1421      N1426   1.437       .  S
C1422      H1427   1.083       .  S
N1423      H1443   1.045       .  S
N1423      H1444   1.046       .  S
C1425      C1428   1.401       .  A
C1425      C1432   1.415       .  A
N1426      H1441   1.045       .  S
N1426      H1442   1.046       .  S
C1428      C1429   1.402       .  A
C1428      H1433   1.084       .  S
C1429      C1430   1.417       .  A
C1429      N1434   1.439       .  S
C1430      C1431   1.403       .  A
C1431      C1432   1.402       .  A
C1431      H1435   1.084       .  S
C1432      N1436   1.438       .  S
N1434      H1437   1.046       .  S
N1434      H1438   1.044       .  S
N1436      H1439   1.046       .  S
N1436      H1440   1.043       .  S
C1445      C1446   1.419       .  A
C1445      C1450   1.411       .  A
C1446      C1447   1.410       .  A
C1446      N1451   1.438       .  S
C1447      C1448   1.404       .  A
C1447      H1452   1.083       .  S
C1448      C1449   1.411       .  A
C1448      C1453   1.498       .  S
C1449      C1450   1.411       .  A
C1449      N1454   1.438       .  S
C1450      H1455   1.083       .  S
N1451      H1471   1.046       .  S
N1451      H1472   1.046       .  S
C1453      C1456   1.407       .  A
C1453      C1460   1.414       .  A
N1454      H1469   1.046       .  S
N1454      H1470   1.045       .  S
C1456      C1457   1.403       .  A
C1456      H1461   1.084       .  S
C1457      C1458   1.411       .  A
C1457      N1462   1.432       .  S
C1458      C1459   1.403       .  A
C1459      C1460   1.410       .  A
C1459      H1463   1.084       .  S
C1460      N1464   1.437       .  S
N1462      H1465   1.045       .  S
N1462      H1466   1.045       .  S
N1464      H1467   1.046       .  S
N1464      H1468   1.046       .  S
C1473      C1474   1.412       .  A
C1473      C1478   1.404       .  A
C1474      C1475   1.403       .  A
C1474      N1479   1.438       .  S
C1475      C1476   1.402       .  A
C1475      H1480   1.084       .  S
C1476      C1477   1.411       .  A
C1476      C1481   1.483       .  S
C1477      C1478   1.407       .  A
C1477      N1482   1.438       .  S
C1478      H1483   1.084       .  S
N1479      H1499   1.045       .  S
N1479      H1500   1.046       .  S
C1481      C1484   1.402       .  A
C1481      C1488   1.412       .  A
N1482      H1497   1.046       .  S
N1482      H1498   1.046       .  S
C1484      C1485   1.405       .  A
C1484      H1489   1.084       .  S
C1485      C1486   1.408       .  A
C1485      N1490   1.436       .  S
C1486      C1487   1.399       .  A
C1487      C1488   1.406       .  A
C1487      H1491   1.083       .  S
C1488      N1492   1.437       .  S
N1490      H1493   1.045       .  S
N1490      H1494   1.044       .  S
N1492      H1495   1.046       .  S
N1492      H1496   1.046       .  S
C1501      C1502   1.406       .  A
C1501      C1506   1.403       .  A
C1502      C1503   1.404       .  A
C1502      N1507   1.432       .  S
C1503      C1504   1.403       .  A
C1503      H1508   1.084       .  S
C1504      C1505   1.410       .  A
C1504      C1509   1.484       .  S
C1505      C1506   1.408       .  A
C1505      N1510   1.438       .  S
C1506      H1511   1.084       .  S
N1507      H1527   1.046       .  S
N1507      H1528   1.045       .  S
C1509      C1512   1.399       .  A
C1509      C1516   1.409       .  A
N1510      H1525   1.046       .  S
N1510      H1526   1.046       .  S
C1512      C1513   1.408       .  A
C1512      H1517   1.084       .  S
C1513      C1514   1.419       .  A
C1513      N1518   1.438       .  S
C1514      C1515   1.408       .  A
C1515      C1516   1.407       .  A
C1515      H1519   1.083       .  S
C1516      N1520   1.438       .  S
N1518      H1521   1.046       .  S
N1518      H1522   1.045       .  S
N1520      H1523   1.045       .  S
N1520      H1524   1.046       .  S
C1529      C1530   1.419       .  A
C1529      C1534   1.406       .  A
C1530      C1531   1.406       .  A
C1530      N1535   1.438       .  S
C1531      C1532   1.399       .  A
C1531      H1536   1.084       .  S
C1532      C1533   1.409       .  A
C1532      C1537   1.481       .  S
C1533      C1534   1.406       .  A
C1533      N1538   1.438       .  S
C1534      H1539   1.083       .  S
N1535      H1555   1.046       .  S
N1535      H1556   1.046       .  S
C1537      C1540   1.402       .  A
C1537      C1544   1.408       .  A
N1538      H1553   1.046       .  S
N1538      H1554   1.045       .  S
C1540      C1541   1.403       .  A
C1540      H1545   1.084       .  S
C1541      C1542   1.418       .  A
C1541      N1546   1.438       .  S
C1542      C1543   1.403       .  A
C1543      C1544   1.404       .  A
C1543      H1547   1.084       .  S
C1544      N1548   1.438       .  S
N1546      H1549   1.045       .  S
N1546      H1550   1.042       .  S
N1548      H1551   1.046       .  S
N1548      H1552   1.046       .  S
C1557      C1558   1.416       .  A
C1557      C1562   1.401       .  A
C1558      C1559   1.401       .  A
C1558      N1563   1.437       .  S
C1559      C1560   1.400       .  A
C1559      H1564   1.084       .  S
C1560      C1561   1.409       .  A
C1560      C1565   1.478       .  S
C1561      C1562   1.404       .  A
C1561      N1566   1.437       .  S
C1562      H1567   1.083       .  S
N1563      H1583   1.043       .  S
N1563      H1584   1.045       .  S
C1565      C1568   1.401       .  A
C1565      C1572   1.408       .  A
N1566      H1581   1.046       .  S
N1566      H1582   1.046       .  S
C1568      C1569   1.405       .  A
C1568      H1573   1.084       .  S
C1569      C1570   1.412       .  A
C1569      N1574   1.438       .  S
C1570      C1571   1.403       .  A
C1571      C1572   1.405       .  A
C1571      H1575   1.084       .  S
C1572      N1576   1.438       .  S
N1574      H1577   1.045       .  S
N1574      H1578   1.045       .  S
N1576      H1579   1.045       .  S
N1576      H1580   1.046       .  S
C1585      C1586   1.411       .  A
C1585      C1590   1.405       .  A
C1586      C1587   1.400       .  A
C1586      N1591   1.438       .  S
C1587      C1588   1.404   1_556  A
C1587      H1592   1.083       .  S
C1588      C1589   1.415   1_554  A
C1588      C1593   1.495       .  S
C1589      C1590   1.412       .  A
C1589      N1594   1.437   1_556  S
C1590      H1595   1.082       .  S
N1591      H1611   1.046       .  S
N1591      H1612   1.045       .  S
C1593      C1596   1.404       .  A
C1593      C1600   1.415       .  A
N1594      H1609   1.045   1_554  S
N1594      H1610   1.046       .  S
C1596      C1597   1.404       .  A
C1596      H1601   1.083       .  S
C1597      C1598   1.412       .  A
C1597      N1602   1.438       .  S
C1598      C1599   1.403       .  A
C1599      C1600   1.408       .  A
C1599      H1603   1.081       .  S
C1600      N1604   1.437       .  S
N1602      H1605   1.046       .  S
N1602      H1606   1.046       .  S
N1604      H1607   1.046       .  S
N1604      H1608   1.045       .  S
C1613      C1614   1.412       .  A
C1613      C1618   1.404       .  A
C1614      C1615   1.411       .  A
C1614      N1619   1.436       .  S
C1615      C1616   1.403       .  A
C1615      H1620   1.084       .  S
C1616      C1617   1.409       .  A
C1616      C1621   1.486       .  S
C1617      C1618   1.407       .  A
C1617      N1622   1.438       .  S
C1618      H1623   1.084       .  S
N1619      H1639   1.045       .  S
N1619      H1640   1.045       .  S
C1621      C1624   1.400       .  A
C1621      C1628   1.409       .  A
N1622      H1637   1.045       .  S
N1622      H1638   1.046       .  S
C1624      C1625   1.411       .  A
C1624      H1629   1.084       .  S
C1625      C1626   1.420       .  A
C1625      N1630   1.438       .  S
C1626      C1627   1.408       .  A
C1627      C1628   1.408       .  A
C1627      H1631   1.083       .  S
C1628      N1632   1.438       .  S
N1630      H1633   1.046       .  S
N1630      H1634   1.045       .  S
N1632      H1635   1.045       .  S
N1632      H1636   1.046       .  S
C1641      C1642   1.409       .  A
C1641      C1646   1.403       .  A
C1642      C1643   1.404       .  A
C1642      N1647   1.437       .  S
C1643      C1644   1.401       .  A
C1643      H1648   1.084       .  S
C1644      C1645   1.409       .  A
C1644      C1649   1.475       .  S
C1645      C1646   1.405       .  A
C1645      N1650   1.438       .  S
C1646      H1651   1.083       .  S
N1647      H1667   1.045       .  S
N1647      H1668   1.045       .  S
C1649      C1652   1.401       .  A
C1649      C1656   1.408       .  A
N1650      H1665   1.046       .  S
N1650      H1666   1.044       .  S
C1652      C1653   1.406       .  A
C1652      H1657   1.084       .  S
C1653      C1654   1.414       .  A
C1653      N1658   1.438       .  S
C1654      C1655   1.406       .  A
C1655      C1656   1.403       .  A
C1655      H1659   1.084       .  S
C1656      N1660   1.439       .  S
N1658      H1661   1.045       .  S
N1658      H1662   1.046       .  S
N1660      H1663   1.046       .  S
N1660      H1664   1.044       .  S
C1669      C1670   1.414       .  A
C1669      C1674   1.405       .  A
C1670      C1671   1.403       .  A
C1670      N1675   1.438       .  S
C1671      C1672   1.399       .  A
C1671      H1676   1.084       .  S
C1672      C1673   1.409       .  A
C1672      C1677   1.477       .  S
C1673      C1674   1.408       .  A
C1673      N1678   1.437       .  S
C1674      H1679   1.084       .  S
N1675      H1695   1.045       .  S
N1675      H1696   1.046       .  S
C1677      C1680   1.400       .  A
C1677      C1684   1.408       .  A
N1678      H1693   1.046       .  S
N1678      H1694   1.046       .  S
C1680      C1681   1.399       .  A
C1680      H1685   1.084       .  S
C1681      C1682   1.416       .  A
C1681      N1686   1.437       .  S
C1682      C1683   1.402       .  A
C1683      C1684   1.406       .  A
C1683      H1687   1.083       .  S
C1684      N1688   1.437       .  S
N1686      H1689   1.045       .  S
N1686      H1690   1.043       .  S
N1688      H1691   1.046       .  S
N1688      H1692   1.046       .  S
C1697      C1698   1.408       .  A
C1697      C1702   1.402       .  A
C1698      C1699   1.404       .  A
C1698      N1703   1.432       .  S
C1699      C1700   1.403       .  A
C1699      H1704   1.084       .  S
C1700      C1701   1.412       .  A
C1700      C1705   1.485       .  S
C1701      C1702   1.408       .  A
C1701      N1706   1.437       .  S
C1702      H1707   1.084       .  S
N1703      H1723   1.046       .  S
N1703      H1724   1.046       .  S
C1705      C1708   1.401       .  A
C1705      C1712   1.407       .  A
N1706      H1721   1.045       .  S
N1706      H1722   1.046       .  S
C1708      C1709   1.407       .  A
C1708      H1713   1.084       .  S
C1709      C1710   1.417       .  A
C1709      N1714   1.438       .  S
C1710      C1711   1.411       .  A
C1711      C1712   1.409       .  A
C1711      H1715   1.083       .  S
C1712      N1716   1.438       .  S
N1714      H1717   1.046       .  S
N1714      H1718   1.045       .  S
N1716      H1719   1.046       .  S
N1716      H1720   1.046       .  S
C1725      C1726   1.411       .  A
C1725      C1730   1.403       .  A
C1726      C1727   1.404       .  A
C1726      N1731   1.438       .  S
C1727      C1728   1.404       .  A
C1727      H1732   1.083       .  S
C1728      C1729   1.414       .  A
C1728      C1733   1.494       .  S
C1729      C1730   1.409       .  A
C1729      N1734   1.437       .  S
C1730      H1735   1.083       .  S
N1731      H1751   1.045       .  S
N1731      H1752   1.046       .  S
C1733      C1736   1.403       .  A
C1733      C1740   1.414       .  A
N1734      H1749   1.046       .  S
N1734      H1750   1.045       .  S
C1736      C1737   1.398       .  A
C1736      H1741   1.084       .  S
C1737      C1738   1.417       .  A
C1737      N1742   1.439       .  S
C1738      C1739   1.405       .  A
C1739      C1740   1.412       .  A
C1739      H1743   1.083       .  S
C1740      N1744   1.437       .  S
N1742      H1745   1.045       .  S
N1742      H1746   1.044       .  S
N1744      H1747   1.046       .  S
N1744      H1748   1.046       .  S
C1753      C1754   1.417       .  A
C1753      C1758   1.407       .  A
C1754      C1755   1.408       .  A
C1754      N1759   1.438       .  S
C1755      C1756   1.403       .  A
C1755      H1760   1.084       .  S
C1756      C1757   1.410       .  A
C1756      C1761   1.486       .  S
C1757      C1758   1.405       .  A
C1757      N1762   1.438       .  S
C1758      H1763   1.083       .  S
N1759      H1779   1.046       .  S
N1759      H1780   1.046       .  S
C1761      C1764   1.404       .  A
C1761      C1768   1.411       .  A
N1762      H1777   1.045       .  S
N1762      H1778   1.046       .  S
C1764      C1765   1.404       .  A
C1764      H1769   1.084       .  S
C1765      C1766   1.409       .  A
C1765      N1770   1.436       .  S
C1766      C1767   1.403       .  A
C1767      C1768   1.407       .  A
C1767      H1771   1.083       .  S
C1768      N1772   1.437       .  S
N1770      H1773   1.045       .  S
N1770      H1774   1.046       .  S
N1772      H1775   1.046       .  S
N1772      H1776   1.046       .  S
C1781      C1782   1.418       .  A
C1781      C1786   1.402       .  A
C1782      C1783   1.405       .  A
C1782      N1787   1.438       .  S
C1783      C1784   1.402       .  A
C1783      H1788   1.084       .  S
C1784      C1785   1.407       .  A
C1784      C1789   1.480       .  S
C1785      C1786   1.401       .  A
C1785      N1790   1.438       .  S
C1786      H1791   1.084       .  S
N1787      H1807   1.043       .  S
N1787      H1808   1.045       .  S
C1789      C1792   1.401       .  A
C1789      C1796   1.404       .  A
N1790      H1805   1.046       .  S
N1790      H1806   1.045       .  S
C1792      C1793   1.405       .  A
C1792      H1797   1.084       .  S
C1793      C1794   1.419       .  A
C1793      N1798   1.438       .  S
C1794      C1795   1.411       .  A
C1795      C1796   1.406       .  A
C1795      H1799   1.083       .  S
C1796      N1800   1.438       .  S
N1798      H1801   1.046       .  S
N1798      H1802   1.045       .  S
N1800      H1803   1.046       .  S
N1800      H1804   1.045       .  S
C1809      C1810   1.414       .  A
C1809      C1814   1.404       .  A
C1810      C1811   1.396       .  A
C1810      N1815   1.433       .  S
C1811      C1812   1.401       .  A
C1811      H1816   1.084       .  S
C1812      C1813   1.413       .  A
C1812      C1817   1.486       .  S
C1813      C1814   1.411       .  A
C1813      N1818   1.437       .  S
C1814      H1819   1.083       .  S
N1815      H1835   1.046       .  S
N1815      H1836   1.043       .  S
C1817      C1820   1.399       .  A
C1817      C1824   1.411       .  A
N1818      H1833   1.046       .  S
N1818      H1834   1.046       .  S
C1820      C1821   1.408       .  A
C1820      H1825   1.084       .  S
C1821      C1822   1.422       .  A
C1821      N1826   1.438       .  S
C1822      C1823   1.407       .  A
C1823      C1824   1.406       .  A
C1823      H1827   1.083       .  S
C1824      N1828   1.438       .  S
N1826      H1829   1.045       .  S
N1826      H1830   1.046       .  S
N1828      H1831   1.046       .  S
N1828      H1832   1.046       .  S
C1837      C1838   1.415       .  A
C1837      C1842   1.407       .  A
C1838      C1839   1.406       .  A
C1838      N1843   1.438       .  S
C1839      C1840   1.402       .  A
C1839      H1844   1.084       .  S
C1840      C1841   1.409       .  A
C1840      C1845   1.485       .  S
C1841      C1842   1.407       .  A
C1841      N1846   1.437       .  S
C1842      H1847   1.084       .  S
N1843      H1863   1.046       .  S
N1843      H1864   1.046       .  S
C1845      C1848   1.403       .  A
C1845      C1852   1.410       .  A
N1846      H1861   1.045       .  S
N1846      H1862   1.046       .  S
C1848      C1849   1.405       .  A
C1848      H1853   1.084       .  S
C1849      C1850   1.416       .  A
C1849      N1854   1.438       .  S
C1850      C1851   1.400       .  A
C1851      C1852   1.404       .  A
C1851      H1855   1.083       .  S
C1852      N1856   1.438       .  S
N1854      H1857   1.045       .  S
N1854      H1858   1.043       .  S
N1856      H1859   1.046       .  S
N1856      H1860   1.045       .  S
C1865      C1866   1.418       .  A
C1865      C1870   1.402       .  A
C1866      C1867   1.406       .  A
C1866      N1871   1.438       .  S
C1867      C1868   1.402       .  A
C1867      H1872   1.084       .  S
C1868      C1869   1.409       .  A
C1868      C1873   1.481       .  S
C1869      C1870   1.403       .  A
C1869      N1874   1.438       .  S
C1870      H1875   1.084       .  S
N1871      H1891   1.042       .  S
N1871      H1892   1.045       .  S
C1873      C1876   1.400       .  A
C1873      C1880   1.411   1_655  A
N1874      H1889   1.045       .  S
N1874      H1890   1.045       .  S
C1876      C1877   1.401   1_655  A
C1876      H1881   1.084       .  S
C1877      C1878   1.409       .  A
C1877      N1882   1.438       .  S
C1878      C1879   1.404       .  A
C1879      C1880   1.412       .  A
C1879      H1883   1.084       .  S
C1880      N1884   1.437       .  S
N1882      H1885   1.045   1_455  S
N1882      H1886   1.046       .  S
N1884      H1887   1.046       .  S
N1884      H1888   1.044   1_455  S
C1893      C1894   1.411       .  A
C1893      C1898   1.402       .  A
C1894      C1895   1.406       .  A
C1894      N1899   1.437       .  S
C1895      C1896   1.402       .  A
C1895      H1900   1.084       .  S
C1896      C1897   1.410       .  A
C1896      C1901   1.481       .  S
C1897      C1898   1.405       .  A
C1897      N1902   1.438       .  S
C1898      H1903   1.083       .  S
N1899      H1919   1.046       .  S
N1899      H1920   1.045       .  S
C1901      C1904   1.398       .  A
C1901      C1908   1.409       .  A
N1902      H1917   1.046       .  S
N1902      H1918   1.044       .  S
C1904      C1905   1.405       .  A
C1904      H1909   1.084       .  S
C1905      C1906   1.418       .  A
C1905      N1910   1.438       .  S
C1906      C1907   1.410       .  A
C1907      C1908   1.410       .  A
C1907      H1911   1.083       .  S
C1908      N1912   1.438       .  S
N1910      H1913   1.046       .  S
N1910      H1914   1.045       .  S
N1912      H1915   1.046       .  S
N1912      H1916   1.044       .  S
C1921      C1922   1.413       .  A
C1921      C1926   1.410       .  A
C1922      C1923   1.402       .  A
C1922      N1927   1.433       .  S
C1923      C1924   1.403       .  A
C1923      H1928   1.084       .  S
C1924      C1925   1.409       .  A
C1924      C1929   1.488       .  S
C1925      C1926   1.410       .  A
C1925      N1930   1.437       .  S
C1926      H1931   1.083       .  S
N1927      H1947   1.046       .  S
N1927      H1948   1.046       .  S
C1929      C1932   1.406       .  A
C1929      C1936   1.411       .  A
N1930      H1945   1.046       .  S
N1930      H1946   1.045       .  S
C1932      C1933   1.408       .  A
C1932      H1937   1.084       .  S
C1933      C1934   1.408       .  A
C1933      N1938   1.431       .  S
C1934      C1935   1.403       .  A
C1935      C1936   1.404       .  A
C1935      H1939   1.084       .  S
C1936      N1940   1.438       .  S
N1938      H1941   1.046       .  S
N1938      H1942   1.045       .  S
N1940      H1943   1.046       .  S
N1940      H1944   1.045       .  S
C1949      C1950   1.412       .  A
C1949      C1954   1.403       .  A
C1950      C1951   1.411       .  A
C1950      N1955   1.437       .  S
C1951      C1952   1.404       .  A
C1951      H1956   1.084       .  S
C1952      C1953   1.409       .  A
C1952      C1957   1.486       .  S
C1953      C1954   1.404       .  A
C1953      N1958   1.438       .  S
C1954      H1959   1.084       .  S
N1955      H1975   1.046       .  S
N1955      H1976   1.045       .  S
C1957      C1960   1.401       .  A
C1957      C1964   1.408       .  A
N1958      H1973   1.045       .  S
N1958      H1974   1.046       .  S
C1960      C1961   1.405       .  A
C1960      H1965   1.084       .  S
C1961      C1962   1.417       .  A
C1961      N1966   1.438       .  S
C1962      C1963   1.410       .  A
C1963      C1964   1.411       .  A
C1963      H1967   1.083       .  S
C1964      N1968   1.437       .  S
N1966      H1969   1.046       .  S
N1966      H1970   1.045       .  S
N1968      H1971   1.046       .  S
N1968      H1972   1.045       .  S
C1977      C1978   1.414       .  A
C1977      C1982   1.403       .  A
C1978      C1979   1.399       .  A
C1978      N1983   1.438       .  S
C1979      C1980   1.402       .  A
C1979      H1984   1.084       .  S
C1980      C1981   1.409       .  A
C1980      C1985   1.481       .  S
C1981      C1982   1.405       .  A
C1981      N1986   1.437       .  S
C1982      H1987   1.083       .  S
N1983      H2003   1.043       .  S
N1983      H2004   1.045       .  S
C1985      C1988   1.401       .  A
C1985      C1992   1.408       .  A
N1986      H2001   1.046       .  S
N1986      H2002   1.045       .  S
C1988      C1989   1.407       .  A
C1988      H1993   1.084       .  S
C1989      C1990   1.417       .  A
C1989      N1994   1.438       .  S
C1990      C1991   1.407       .  A
C1991      C1992   1.403       .  A
C1991      H1995   1.083       .  S
C1992      N1996   1.438       .  S
N1994      H1997   1.046       .  S
N1994      H1998   1.046       .  S
N1996      H1999   1.046       .  S
N1996      H2000   1.045       .  S
C2005      C2006   1.410       .  A
C2005      C2010   1.405       .  A
C2006      C2007   1.402   1_545  A
C2006      N2011   1.438       .  S
C2007      C2008   1.400       .  A
C2007      H2012   1.084       .  S
C2008      C2009   1.410   1_565  A
C2008      C2013   1.480       .  S
C2009      C2010   1.410       .  A
C2009      N2014   1.437       .  S
C2010      H2015   1.083       .  S
N2011      H2031   1.045       .  S
N2011      H2032   1.046       .  S
C2013      C2016   1.403       .  A
C2013      C2020   1.411       .  A
N2014      H2029   1.045       .  S
N2014      H2030   1.045       .  S
C2016      C2017   1.410       .  A
C2016      H2021   1.084       .  S
C2017      C2018   1.410       .  A
C2017      N2022   1.437       .  S
C2018      C2019   1.400       .  A
C2019      C2020   1.403       .  A
C2019      H2023   1.084       .  S
C2020      N2024   1.438       .  S
N2022      H2025   1.046       .  S
N2022      H2026   1.044       .  S
N2024      H2027   1.046       .  S
N2024      H2028   1.044       .  S
