geometry optimzed in LAMMPS
_audit_creation_date              2020-11-30 
_audit_creation_method            'lammps2cif' 
_symmetry_space_group_name_H-M    'P1' 
_symmetry_Int_Tables_number       1 
_symmetry_cell_setting            triclinic 
loop_ 
_symmetry_equiv_pos_as_xyz 
  x,y,z 
_cell_length_a                    59.93301432 
_cell_length_b                    59.87731288003486 
_cell_length_c                    46.82768129517452 
_cell_angle_alpha                 89.96653396046143 
_cell_angle_beta                  90.07302654985556 
_cell_angle_gamma                 120.02107717352986 
loop_ 
_atom_site_label 
_atom_site_type_symbol 
_atom_site_fract_x 
_atom_site_fract_y 
_atom_site_fract_z 
_atom_site_charge 
C1          C  0.44177468  0.22925351  0.12742659     0.03500
C2          C  0.43985771  0.21673596  0.10139780    -0.10100
C3          C  0.43924548  0.19303777  0.10098395     0.01000
C4          C  0.44022624  0.18162345  0.12663633    -0.11200
C5          C  0.44225894  0.19388673  0.15276799     0.03500
C6          C  0.44294995  0.21767860  0.15307694    -0.10600
H7          H  0.43917861  0.22553274  0.08142740     0.09100
H8          H  0.44081299  0.16382015  0.12611166     0.06600
H9          H  0.44493384  0.22741729  0.17321871     0.06500
C10         C  0.27228979  0.86119827  0.37194390     0.03500
C11         C  0.26033826  0.85056615  0.34562735    -0.12700
C12         C  0.23743068  0.82662146  0.34465585     0.01000
C13         C  0.22674845  0.81330277  0.37019161    -0.11200
C14         C  0.23833646  0.82378900  0.39649808     0.03500
C15         C  0.26086703  0.84789980  0.39738078    -0.10600
H16         H  0.26914690  0.86062061  0.32592875     0.09100
H17         H  0.20968594  0.79432901  0.36961357     0.06600
H18         H  0.26983721  0.85595803  0.41778148     0.06500
C19         C  0.86648021  0.19893200  0.12062543     0.03500
C20         C  0.87963906  0.21021218  0.09508976    -0.12700
C21         C  0.90301482  0.23374940  0.09547453     0.01000
C22         C  0.91341961  0.24560942  0.12178013    -0.11200
C23         C  0.90059081  0.23455593  0.14743903     0.03500
C24         C  0.87707355  0.21130701  0.14673214    -0.10600
H25         H  0.87170124  0.20058908  0.07494967     0.09100
H26         H  0.93130856  0.26390855  0.12229092     0.06600
H27         H  0.86656419  0.20335854  0.16641169     0.06500
C28         C  0.69429960  0.82420690  0.37740843     0.03500
C29         C  0.69382961  0.83678384  0.40251354    -0.12700
C30         C  0.69405687  0.86031543  0.40110893     0.01000
C31         C  0.69528400  0.87141090  0.37435174    -0.11200
C32         C  0.69595110  0.85911389  0.34918132     0.03500
C33         C  0.69527877  0.83544022  0.35078183    -0.10600
H34         H  0.69238693  0.82779403  0.42304302     0.09100
H35         H  0.69527523  0.88948548  0.37306469     0.06600
H36         H  0.69580186  0.82592218  0.33131976     0.06500
C37         C  0.90205224  0.65729556  0.12696364     0.03500
C38         C  0.89201966  0.65918624  0.10051485    -0.12700
C39         C  0.86840959  0.65868501  0.09903384     0.01000
C40         C  0.85515929  0.65688876  0.12433972    -0.11200
C41         C  0.86479280  0.65488025  0.15097699     0.03500
C42         C  0.88840792  0.65522805  0.15213879    -0.10600
H43         H  0.90257438  0.66096180  0.08107948     0.09100
H44         H  0.83686077  0.65640845  0.12319573     0.06600
H45         H  0.89570542  0.65286496  0.17241548     0.06500
C46         C  0.24542866  0.40676714  0.37101241     0.03500
C47         C  0.25950245  0.40867109  0.39587238    -0.12700
C48         C  0.28360522  0.41015125  0.39390493     0.01000
C49         C  0.29307452  0.40884099  0.36701390    -0.11200
C50         C  0.27908413  0.40657154  0.34213026     0.03500
C51         C  0.25533216  0.40565646  0.34422234    -0.10600
H52         H  0.25202635  0.40965570  0.41660511     0.09100
H53         H  0.31148661  0.40960518  0.36542815     0.06600
H54         H  0.24426374  0.40348875  0.32506535     0.06500
O55         O  0.97139561  0.34428988  0.34069685    -0.78100
C56         C  0.98724618  0.34846521  0.43258302     0.82900
O57         O  0.96385898  0.41516029  0.37265774    -0.79200
O58         O  0.03973382  0.43349316  0.43247762    -0.80700
O59         O  0.06207346  0.39837804  0.35050027    -0.80500
O60         O  0.00636895  0.36747390  0.31436640    -0.79100
Zn61       Zn  0.97615006  0.36576350  0.37566424     1.55700
O62         O  0.06341313  0.40021290  0.39795873    -0.80500
Cd63       Cd  0.02877935  0.39911400  0.33984222     1.59700
Cd64       Cd  0.00286702  0.42751929  0.37464742     1.59600
O65         O  0.03905369  0.43235701  0.31622899    -0.80500
O66         O  0.00908785  0.39774836  0.37484730    -1.91000
Cd67       Cd  0.03000509  0.40027835  0.40926885     1.59900
O68         O  0.02138852  0.45165107  0.34046882    -0.80500
O69         O  0.00915267  0.36878218  0.43554988    -0.79100
C70         C  0.94409868  0.39267513  0.37407389     0.83400
C71         C  0.98433518  0.34746984  0.31798426     0.83000
O72         O  0.97331941  0.34490672  0.41057457    -0.78100
C73         C  0.07306465  0.39907782  0.37410562     0.83900
O74         O  0.94641008  0.37268573  0.37597727    -0.78200
C75         C  0.03470501  0.45099268  0.31960903     0.84000
C76         C  0.03247521  0.45018786  0.43087819     0.84300
O77         O  0.01762652  0.44961126  0.41103817    -0.80600
O78         O  0.17058036  0.70587570  0.08943346    -0.78100
C79         C  0.15578062  0.70473652  0.18149395     0.82900
O80         O  0.17641347  0.63518955  0.12617160    -0.79200
O81         O  0.10088515  0.61898335  0.18358328    -0.80700
O82         O  0.07884236  0.65358423  0.10152376    -0.80500
O83         O  0.13397712  0.68519083  0.06467305    -0.79100
Zn84       Zn  0.16521573  0.68543611  0.12521026     1.55700
O85         O  0.07916167  0.65356510  0.14907277    -0.80500
Cd86       Cd  0.11207927  0.65309452  0.09028135     1.59700
Cd87       Cd  0.13755236  0.62394911  0.12574654     1.59600
O88         O  0.10189873  0.61980960  0.06667641    -0.80500
O89         O  0.13195730  0.65410826  0.12527124    -1.91000
Cd90       Cd  0.11206599  0.65256610  0.16023112     1.59900
O91         O  0.12062632  0.60129693  0.09044685    -0.80500
O92         O  0.13418522  0.68434598  0.18593993    -0.79100
C93         C  0.19630111  0.65762542  0.12674697     0.83400
C94         C  0.15696081  0.70385433  0.06769235     0.83000
O95         O  0.16878222  0.70766153  0.15891444    -0.78100
C96         C  0.06878341  0.65391654  0.12540138     0.83900
O97         O  0.19420998  0.67776551  0.12684639    -0.78200
C98         C  0.10695810  0.60159424  0.06976347     0.84000
C99         C  0.10604945  0.60083011  0.18101907     0.84300
O100        O  0.12015917  0.60065946  0.16077146    -0.80600
O101        O  0.49071005  0.12681608  0.34273139    -0.78100
C102        C  0.47502189  0.11088664  0.43418941     0.82900
O103        O  0.56849237  0.13637218  0.38197395    -0.79200
O104        O  0.50987878  0.05935608  0.43743283    -0.80700
O105        O  0.45554774  0.03693663  0.35286062    -0.80500
O106        O  0.48021446  0.09192359  0.31673065    -0.79100
Zn107      Zn  0.50600587  0.12237800  0.37900755     1.55700
O108        O  0.45394517  0.03589022  0.40034944    -0.80500
Cd109      Cd  0.48943352  0.07040124  0.34344885     1.59700
Cd110      Cd  0.54244961  0.09701802  0.37991899     1.59600
O111        O  0.51351983  0.06124764  0.32094167    -0.80500
O112        O  0.50619012  0.09009224  0.37901903    -1.91000
Cd113      Cd  0.48689691  0.06926666  0.41319878     1.59900
O114        O  0.55072755  0.08158670  0.34457378    -0.80500
O115        O  0.47447300  0.08955585  0.43829469    -0.79100
C116        C  0.56482677  0.15561089  0.38244145     0.83400
C117        C  0.48179018  0.11378049  0.31988094     0.83000
O118        O  0.48584750  0.12459158  0.41218605    -0.78100
C119        C  0.44420658  0.02615838  0.37608828     0.83900
O120        O  0.54217841  0.15244723  0.38163924    -0.78200
C121        C  0.53709487  0.06750973  0.32388850     0.84000
C122        C  0.53320775  0.06457954  0.43466738     0.84300
O123        O  0.54759656  0.07885466  0.41457100    -0.80600
O124        O  0.65104771  0.92898787  0.09085704    -0.78100
C125        C  0.66507702  0.94359808  0.18209185     0.82900
O126        O  0.57308243  0.92081712  0.12933266    -0.79200
O127        O  0.63323163  0.99675913  0.18613677    -0.80700
O128        O  0.68650345  0.02005191  0.10126689    -0.80500
O129        O  0.66300601  0.96438528  0.06526382    -0.79100
Zn130      Zn  0.63510363  0.93353563  0.12655469     1.55700
O131        O  0.68784742  0.02131333  0.14874492    -0.80500
Cd132      Cd  0.65338549  0.98587397  0.09190842     1.59700
Cd133      Cd  0.59981970  0.96011264  0.12900477     1.59600
O134        O  0.62983099  0.99589515  0.07006290    -0.80500
O135        O  0.63593239  0.96630400  0.12728849    -1.91000
Cd136      Cd  0.65574254  0.98698112  0.16128226     1.59900
O137        O  0.59278488  0.97729723  0.09418370    -0.80500
O138        O  0.66746498  0.96580117  0.18599303    -0.79100
C139        C  0.57627395  0.90127997  0.12922642     0.83400
C140        C  0.66091466  0.94226794  0.06836495     0.83000
O141        O  0.65367914  0.93008955  0.16020300    -0.78100
C142        C  0.69713299  0.03147036  0.12452471     0.83900
O143        O  0.59872775  0.90400629  0.12829637    -0.78200
C144        C  0.60678551  0.99114277  0.07354282     0.84000
C145        C  0.60970387  0.99111558  0.18507839     0.84300
O146        O  0.59449974  0.97670672  0.16547946    -0.80600
C147        C  0.73412514  0.38323752  0.37757698     0.03500
C148        C  0.75931516  0.38726989  0.37663078    -0.12700
C149        C  0.76368982  0.36631669  0.37706852     0.01000
C150        C  0.74260743  0.34115696  0.37916505    -0.11200
C151        C  0.71735121  0.33682071  0.38043502     0.03500
C152        C  0.71325355  0.35793661  0.37957329    -0.10600
H153        H  0.77555189  0.40673441  0.37533574     0.09100
H154        H  0.74584315  0.32490112  0.37959573     0.06600
H155        H  0.69375334  0.35463684  0.38020505     0.06500
C156        C  0.40959001  0.67393617  0.12213558     0.03500
C157        C  0.42940570  0.69979461  0.12267297    -0.12700
C158        C  0.42376488  0.71991103  0.12328216     0.01000
C159        C  0.39789132  0.71386365  0.12307652    -0.11200
C160        C  0.37789343  0.68807274  0.12308246     0.03500
C161        C  0.38381376  0.66819249  0.12279168    -0.10600
H162        H  0.44930360  0.70425937  0.12260945     0.09100
H163        H  0.39324518  0.72918062  0.12294893     0.06600
H164        H  0.36834820  0.64828287  0.12294461     0.06500
O165        O  0.39455803  0.44908323  0.08731834    -0.78100
C166        C  0.39578232  0.43704766  0.17870709     0.82900
O167        O  0.46484453  0.52700132  0.12174168    -0.79200
O168        O  0.48064142  0.46982994  0.18209012    -0.80700
O169        O  0.44730189  0.41083011  0.10087796    -0.80500
O170        O  0.41646624  0.43460923  0.06274260    -0.79100
Zn171      Zn  0.41502850  0.46542302  0.12254039     1.55700
O172        O  0.44866595  0.41223706  0.14835493    -0.80500
Cd173      Cd  0.44766397  0.44433514  0.08901124     1.59700
Cd174      Cd  0.47628858  0.49962475  0.12223080     1.59600
O175        O  0.48022229  0.46686755  0.06495740    -0.80500
O176        O  0.44642326  0.46374247  0.12304486    -1.91000
Cd177      Cd  0.44814631  0.44582777  0.15823038     1.59900
O178        O  0.49832135  0.50509153  0.08655203    -0.80500
O179        O  0.41593540  0.43543524  0.18297541    -0.79100
C180        C  0.44242127  0.52438497  0.12233179     0.83400
C181        C  0.39726386  0.43806654  0.06547217     0.83000
O182        O  0.39296745  0.44737326  0.15626419    -0.78100
C183        C  0.44784716  0.40103406  0.12487210     0.83900
O184        O  0.42233496  0.50211095  0.12304527    -0.78200
C185        C  0.49776651  0.49049877  0.06645068     0.84000
C186        C  0.49891754  0.49299103  0.17866043     0.84300
O187        O  0.49965401  0.50647728  0.15725667    -0.80600
O188        O  0.75079091  0.61130796  0.34111163    -0.78100
C189        C  0.74832877  0.62165515  0.43389797     0.82900
O190        O  0.68132909  0.53186878  0.37468152    -0.79200
O191        O  0.66269794  0.58962995  0.43299149    -0.80700
O192        O  0.69608296  0.64653988  0.35358155    -0.80500
O193        O  0.72749439  0.62356964  0.31558234    -0.79100
Zn194      Zn  0.73043102  0.59415690  0.37640226     1.55700
O195        O  0.69649014  0.64625095  0.40102830    -0.80500
Cd196      Cd  0.69628177  0.61334901  0.34208471     1.59700
Cd197      Cd  0.66877826  0.55838996  0.37572552     1.59600
O198        O  0.66291677  0.59059648  0.31919866    -0.80500
O199        O  0.69835763  0.59460199  0.37633944    -1.91000
Cd200      Cd  0.69644019  0.61266634  0.41119910     1.59900
O201        O  0.64543218  0.55227791  0.34059623    -0.80500
O202        O  0.72769492  0.62249041  0.43764514    -0.79100
C203        C  0.70400176  0.53505336  0.37487554     0.83400
C204        C  0.74747048  0.62143842  0.31875190     0.83000
O205        O  0.75197567  0.61211350  0.41123498    -0.78100
C206        C  0.69618452  0.65675389  0.37747079     0.83900
O207        O  0.72377983  0.55757629  0.37583539    -0.78200
C208        C  0.64524771  0.56704001  0.32107968     0.84000
C209        C  0.64514286  0.56609189  0.43050938     0.84300
O210        O  0.64560317  0.55147067  0.41103273    -0.80600
C211        C  0.56412766  0.53551121  0.21351554    -0.27300
C212        C  0.56015108  0.52462703  0.24088321     0.02300
C213        C  0.53562881  0.50395250  0.24806364     0.30400
C214        C  0.51586011  0.49394858  0.22764928    -0.19000
C215        C  0.51998376  0.50446204  0.20002966    -0.28400
C216        C  0.54436815  0.52568982  0.19320209     0.44500
C217        C  0.58179662  0.53525708  0.26162808     0.05700
O218        O  0.53049435  0.49431130  0.27536844    -0.57000
H219        H  0.49713983  0.47806877  0.23361690     0.18600
O220        O  0.54929270  0.53687769  0.16666739    -0.63700
H221        H  0.58282757  0.55150871  0.20768555     0.17000
C222        C  0.58922277  0.51920191  0.27575662     0.29300
C223        C  0.60971186  0.52976410  0.29518670    -0.24600
C224        C  0.62373788  0.55647420  0.30023279    -0.23900
C225        C  0.61667801  0.57260919  0.28553048     0.40700
C226        C  0.59586608  0.56195555  0.26651908    -0.26300
O227        O  0.57701503  0.49323652  0.27025076    -0.58200
H228        H  0.61496645  0.51701444  0.30591255     0.16400
O229        O  0.62975252  0.59879317  0.28974528    -0.59600
H230        H  0.59055832  0.57462084  0.25568347     0.14800
H231        H  0.55587190  0.52746101  0.15520753     0.46700
H232        H  0.58543577  0.49149999  0.25283115     0.42100
H233        H  0.62097613  0.60171746  0.30602476     0.45500
H234        H  0.52642155  0.47611330  0.27377551     0.37000
C235        C  0.53723683  0.49900496  0.99953048    -0.27300
C236        C  0.55874279  0.52349389  0.00427583     0.02300
C237        C  0.55968643  0.53725630  0.02903060     0.30400
C238        C  0.53956201  0.52638611  0.04872463    -0.19000
C239        C  0.51828064  0.50156170  0.04448472    -0.28400
C240        C  0.51716596  0.48794770  0.01939099     0.44500
C241        C  0.58057714  0.53445260  0.48750553     0.05700
O242        O  0.58047659  0.56115507  0.03454222    -0.57000
H243        H  0.54096921  0.53735354  0.06770729     0.18600
O244        O  0.49677807  0.46375698  0.01409068    -0.63700
H245        H  0.53459653  0.49060934  0.48145640     0.17000
C246        C  0.59133684  0.51944411  0.47846160     0.29300
C247        C  0.61243937  0.52998364  0.45991304    -0.24600
C248        C  0.62322296  0.55552891  0.45040691    -0.23900
C249        C  0.61236153  0.57049242  0.45933190     0.40700
C250        C  0.59115485  0.55989404  0.47767376    -0.26300
O251        O  0.58211252  0.49490175  0.48872106    -0.58200
H252        H  0.62066091  0.51829075  0.45331279     0.16400
O253        O  0.62200516  0.59532281  0.44983644    -0.59600
H254        H  0.58116498  0.57048709  0.97895469     0.14800
H255        H  0.48428822  0.46661110  0.00306588     0.46700
H256        H  0.57224576  0.48329356  0.47269159     0.42100
H257        H  0.61300510  0.59374077  0.43151902     0.45500
H258        H  0.59314088  0.55777935  0.04436457     0.37000
C259        C  0.45605077  0.59367254  0.11576499    -0.27300
C260        C  0.43165605  0.59042219  0.12156910     0.02300
C261        C  0.41112022  0.56569912  0.12798044     0.30400
C262        C  0.41498104  0.54454753  0.12820213    -0.19000
C263        C  0.43931897  0.54751821  0.12219198    -0.28400
C264        C  0.45998304  0.57246937  0.11586218     0.44500
C265        C  0.42745983  0.61273333  0.12072377     0.05700
O266        O  0.38714896  0.56203499  0.13417622    -0.57000
H267        H  0.39878263  0.52573617  0.13326517     0.18600
O268        O  0.48402543  0.57641722  0.10950079    -0.63700
H269        H  0.47198472  0.61264968  0.11068841     0.17000
C270        C  0.43952261  0.63298482  0.14055180     0.29300
C271        C  0.43365049  0.65287392  0.14074811    -0.24600
C272        C  0.41595254  0.65299902  0.12111742    -0.23900
C273        C  0.40462417  0.63315827  0.10060867     0.40700
C274        C  0.41024819  0.61312780  0.10068338    -0.26300
O275        O  0.45602869  0.63277699  0.16072345    -0.58200
H276        H  0.44254214  0.66796687  0.15666325     0.16400
O277        O  0.38813073  0.63322457  0.08032337    -0.59600
H278        H  0.40109098  0.59776894  0.08509676     0.14800
H279        H  0.48402760  0.57429978  0.08850773     0.46700
H280        H  0.47353945  0.64396158  0.15285026     0.42100
H281        H  0.39939710  0.64400414  0.06450308     0.45500
H282        H  0.38752002  0.56544871  0.15490736     0.37000
C283        C  0.73659464  0.44530865  0.35436459    -0.27300
C284        C  0.72040967  0.44735001  0.37454756     0.02300
C285        C  0.70855270  0.42807081  0.39556083     0.30400
C286        C  0.71305136  0.40727133  0.39624495    -0.19000
C287        C  0.72951230  0.40538371  0.37628179    -0.28400
C288        C  0.74113914  0.42454888  0.35506158     0.44500
C289        C  0.71624547  0.46978092  0.37374649     0.05700
O290        O  0.69282504  0.42957732  0.41578929    -0.57000
H291        H  0.70398285  0.39277673  0.41274601     0.18600
O292        O  0.75666372  0.42298681  0.33460672    -0.63700
H293        H  0.74553480  0.45974537  0.33778912     0.17000
C294        C  0.73719249  0.49515139  0.37499026     0.29300
C295        C  0.73286021  0.51605197  0.37525942    -0.24600
C296        C  0.70772324  0.51225560  0.37399502    -0.23900
C297        C  0.68675601  0.48672783  0.37202206     0.40700
C298        C  0.69114581  0.46583023  0.37209127    -0.26300
O299        O  0.76193097  0.49966221  0.37735412    -0.58200
H300        H  0.74937096  0.53532876  0.37674299     0.16400
O301        O  0.66185152  0.48182792  0.37043210    -0.59600
H302        H  0.67484189  0.44640529  0.37075536     0.14800
H303        H  0.74471800  0.41139358  0.31970871     0.46700
H304        H  0.76968836  0.50562619  0.35815800     0.42100
H305        H  0.65793459  0.48071078  0.34974754     0.45500
H306        H  0.70456849  0.44041826  0.43127391     0.37000
C307        C  0.46611687  0.79026200  0.14470885    -0.27300
C308        C  0.48717828  0.79813034  0.12624042     0.02300
C309        C  0.48689823  0.78037682  0.10629539     0.30400
C310        C  0.46602992  0.75517623  0.10531503    -0.19000
C311        C  0.44506828  0.74713978  0.12400171    -0.28400
C312        C  0.44524222  0.76498405  0.14381038     0.44500
C313        C  0.50967009  0.82462666  0.12828276     0.05700
O314        O  0.50697586  0.78746762  0.08764979    -0.57000
H315        H  0.46620311  0.74185136  0.08979215     0.18600
O316        O  0.42551460  0.75774222  0.16298014    -0.63700
H317        H  0.46616710  0.80357871  0.16039789     0.17000
C318        C  0.50678643  0.84650672  0.12614824     0.29300
C319        C  0.52850255  0.87128131  0.12698926    -0.24600
C320        C  0.55343790  0.87479031  0.12988198    -0.23900
C321        C  0.55611512  0.85272038  0.13290302     0.40700
C322        C  0.53439912  0.82803578  0.13198380    -0.26300
O323        O  0.48287262  0.84389848  0.12264460    -0.58200
H324        H  0.52577461  0.88777109  0.12482588     0.16400
O325        O  0.57984113  0.85488341  0.13647184    -0.59600
H326        H  0.53689998  0.81140121  0.13419492     0.14800
H327        H  0.43003728  0.75025114  0.17937508     0.46700
H328        H  0.47990677  0.84261060  0.10171519     0.42100
H329        H  0.58254364  0.85562366  0.15738972     0.45500
H330        H  0.50292235  0.79514055  0.07105920     0.37000
C331        C  0.67271312  0.26709258  0.40213622    -0.27300
C332        C  0.65297611  0.25928924  0.38180253     0.02300
C333        C  0.65445200  0.27709419  0.36116588     0.30400
C334        C  0.67534317  0.30232016  0.36117245    -0.19000
C335        C  0.69515056  0.31015884  0.38144344    -0.28400
C336        C  0.69363676  0.29234813  0.40215131     0.44500
C337        C  0.63065032  0.23271276  0.38257174     0.05700
O338        O  0.63568795  0.26992298  0.34071079    -0.57000
H339        H  0.67630777  0.31570621  0.34497324     0.18600
O340        O  0.71228503  0.29954852  0.42274942    -0.63700
H341        H  0.67166634  0.25365846  0.41831818     0.17000
C342        C  0.63392906  0.21113994  0.37973105     0.29300
C343        C  0.61245904  0.18621036  0.38019428    -0.24600
C344        C  0.58738065  0.18226688  0.38339728    -0.23900
C345        C  0.58429996  0.20406956  0.38674168     0.40700
C346        C  0.60578809  0.22893102  0.38610698    -0.26300
O347        O  0.65801316  0.21423287  0.37601988    -0.58200
H348        H  0.61549320  0.16995131  0.37757495     0.16400
O349        O  0.56040905  0.20146155  0.39044261    -0.59600
H350        H  0.60304156  0.24539210  0.38858596     0.14800
H351        H  0.70652468  0.30635807  0.43868675     0.46700
H352        H  0.66129973  0.21674376  0.35516247     0.42100
H353        H  0.55780739  0.20065808  0.41136098     0.45500
H354        H  0.64111120  0.26267874  0.32488810     0.37000
C355        C  0.60150435  0.03583331  0.01975498    -0.27300
C356        C  0.57489756  0.02290805  0.01450938     0.02300
C357        C  0.55887098  0.99936989  0.02845497     0.30400
C358        C  0.56946863  0.98926298  0.04767658    -0.19000
C359        C  0.59607757  0.00222805  0.05311554    -0.28400
C360        C  0.61212724  0.02578140  0.03897740     0.44500
C361        C  0.56459839  0.03263895  0.49404889     0.05700
O362        O  0.53302657  0.98553176  0.02232694    -0.57000
H363        H  0.55686000  0.97099550  0.05799192     0.18600
O364        O  0.63816166  0.03935839  0.04407816    -0.63700
H365        H  0.61404542  0.05397571  0.00916017     0.17000
C366        C  0.54515279  0.03991363  0.00265689     0.29300
C367        C  0.53584451  0.04930839  0.48359067    -0.24600
C368        C  0.54399594  0.05351728  0.45500681    -0.23900
C369        C  0.56260459  0.04711076  0.44606893     0.40700
C370        C  0.57279127  0.03686855  0.46555791    -0.26300
O371        O  0.53713253  0.03681145  0.03052338    -0.58200
H372        H  0.52177442  0.05432484  0.49093484     0.16400
O373        O  0.57066316  0.05033822  0.41819631    -0.59600
H374        H  0.58689744  0.03185864  0.45830780     0.14800
H375        H  0.64043961  0.05128186  0.05993350     0.46700
H376        H  0.54919290  0.05330127  0.04004468     0.42100
H377        H  0.55837114  0.03402306  0.40846983     0.45500
H378        H  0.52516704  0.98615315  0.54048923     0.37000
C379        C  0.60610684  0.03697964  0.23864062    -0.27300
C380        C  0.57990687  0.02364746  0.24595202     0.02300
C381        C  0.56371371  0.99914267  0.23396427     0.30400
C382        C  0.57364290  0.98862977  0.21442302    -0.19000
C383        C  0.59984133  0.00207387  0.20679955    -0.28400
C384        C  0.61610397  0.02644963  0.21922914     0.44500
C385        C  0.56955261  0.03561746  0.26572378     0.05700
O386        O  0.53814263  0.98529677  0.24123942    -0.57000
H387        H  0.56082231  0.96983683  0.20529408     0.18600
O388        O  0.64164965  0.04054654  0.21192406    -0.63700
H389        H  0.61876008  0.05591851  0.24754606     0.17000
C390        C  0.57948083  0.04298269  0.29354486     0.29300
C391        C  0.56922442  0.05397297  0.31197052    -0.24600
C392        C  0.54879363  0.05758059  0.30320927    -0.23900
C393        C  0.53929726  0.05075504  0.27506621     0.40700
C394        C  0.54958898  0.03977455  0.25667010    -0.26300
O395        O  0.59883635  0.03899001  0.30314687    -0.58200
H396        H  0.57681609  0.05900174  0.33347721     0.16400
O397        O  0.52005293  0.05482131  0.26521872    -0.59600
H398        H  0.54204984  0.03459968  0.23515639     0.14800
H399        H  0.64224120  0.05102430  0.19521561     0.46700
H400        H  0.58998135  0.02113490  0.31073190     0.42100
H401        H  0.52893066  0.07297834  0.25857929     0.45500
H402        H  0.53769534  0.97698148  0.25972617     0.37000
C403        C  0.25186575  0.64366699  0.13040294    -0.27300
C404        C  0.27317308  0.66840132  0.12623794     0.02300
C405        C  0.26907924  0.68940758  0.12261956     0.30400
C406        C  0.24407161  0.68553443  0.12296566    -0.19000
C407        C  0.22256315  0.66077380  0.12690689    -0.28400
C408        C  0.22672698  0.63970006  0.13061322     0.44500
C409        C  0.29961230  0.67223315  0.12521430     0.05700
O410        O  0.28945155  0.71389520  0.11877239    -0.57000
H411        H  0.24159385  0.70210561  0.11997149     0.18600
O412        O  0.20650561  0.61521446  0.13489562    -0.63700
H413        H  0.25469724  0.62727888  0.13306035     0.17000
C414        C  0.30973065  0.66486219  0.14819507     0.29300
C415        C  0.33516501  0.66971793  0.14710852    -0.24600
C416        C  0.35076458  0.68197104  0.12331969    -0.23900
C417        C  0.34050908  0.68887341  0.10015192     0.40700
C418        C  0.31513033  0.68399582  0.10119195    -0.26300
O419        O  0.29538737  0.65422494  0.17239040    -0.58200
H420        H  0.34294121  0.66447632  0.16514602     0.16400
O421        O  0.35521313  0.70050678  0.07645245    -0.59600
H422        H  0.30753044  0.68948970  0.08320034     0.14800
H423        H  0.20230311  0.60712434  0.11572005     0.46700
H424        H  0.28935201  0.63555066  0.17110531     0.42100
H425        H  0.35300836  0.68612285  0.06403235     0.45500
H426        H  0.29542016  0.72068562  0.13830051     0.37000
C427        C  0.88881620  0.40700947  0.37038222    -0.27300
C428        C  0.86729227  0.38226014  0.37340577     0.02300
C429        C  0.87110597  0.36099459  0.37623882     0.30400
C430        C  0.89608231  0.36467132  0.37620592    -0.19000
C431        C  0.91779521  0.38949724  0.37351994    -0.28400
C432        C  0.91384054  0.41076778  0.37038642     0.44500
C433        C  0.84097220  0.37881490  0.37388729     0.05700
O434        O  0.85054376  0.33652156  0.37946179    -0.57000
H435        H  0.89838226  0.34793818  0.37858392     0.18600
O436        O  0.93420934  0.43539857  0.36762337    -0.63700
H437        H  0.88621386  0.42354663  0.36781443     0.17000
C438        C  0.83442660  0.39247587  0.39345948     0.29300
C439        C  0.80927309  0.38835301  0.39415463    -0.24600
C440        C  0.79032316  0.37075150  0.37542965    -0.23900
C441        C  0.79702785  0.35750969  0.35541963     0.40700
C442        C  0.82212917  0.36152137  0.35483504    -0.26300
O443        O  0.85215254  0.40891964  0.41294181    -0.58200
H444        H  0.80442310  0.39858179  0.40977893     0.16400
O445        O  0.77925959  0.34076471  0.33617753    -0.59600
H446        H  0.82695770  0.35119493  0.33932015     0.14800
H447        H  0.93684751  0.43834969  0.34677316     0.46700
H448        H  0.85743852  0.42650903  0.40596002     0.42100
H449        H  0.77981258  0.35171137  0.31996028     0.45500
H450        H  0.84678333  0.33461168  0.40021250     0.37000
C451        C  0.03806506  0.50427331  0.47830580    -0.27300
C452        C  0.06278064  0.51383760  0.48998595     0.02300
C453        C  0.07694866  0.50158805  0.48303917     0.30400
C454        C  0.06652356  0.48040919  0.46449832    -0.19000
C455        C  0.04211187  0.47129876  0.45216033    -0.28400
C456        C  0.02772357  0.48324289  0.45953528     0.44500
C457        C  0.07658027  0.53895104  0.00917703     0.05700
O458        O  0.10124955  0.51048921  0.49380652    -0.57000
H459        H  0.07794811  0.47159558  0.45907078     0.18600
O460        O  0.00346348  0.47444762  0.44868415    -0.63700
H461        H  0.02662920  0.51301957  0.48393738     0.17000
C462        C  0.07765115  0.56238608  0.00236944     0.29300
C463        C  0.08759756  0.58265488  0.02218503    -0.24600
C464        C  0.09652487  0.57993508  0.04901756    -0.23900
C465        C  0.09516663  0.55625433  0.05578479     0.40700
C466        C  0.08535994  0.53614833  0.03593494    -0.26300
O467        O  0.06684442  0.56252013  0.47533804    -0.58200
H468        H  0.08854018  0.60062302  0.01637617     0.16400
O469        O  0.10309117  0.55232264  0.08185801    -0.59600
H470        H  0.08424153  0.51807809  0.04166967     0.14800
H471        H  0.99171500  0.46081171  0.46208988     0.46700
H472        H  0.05009621  0.56172402  0.47842852     0.42100
H473        H  0.08764371  0.54540037  0.09425213     0.45500
H474        H  0.11292266  0.52428833  0.48047149     0.37000
C475        C  0.06488158  0.55280849  0.23875715    -0.27300
C476        C  0.07636166  0.53736331  0.24083685     0.02300
C477        C  0.09760343  0.54301727  0.22327598     0.30400
C478        C  0.10689167  0.56359699  0.20398977    -0.19000
C479        C  0.09557849  0.57923039  0.20194021    -0.28400
C480        C  0.07427308  0.57355555  0.21957646     0.44500
C481        C  0.06594696  0.51529967  0.26114472     0.05700
O482        O  0.10964602  0.52869935  0.22498546    -0.57000
H483        H  0.12328895  0.56748750  0.19080231     0.18600
O484        O  0.06221302  0.58786579  0.21805297    -0.63700
H485        H  0.04826561  0.54851987  0.25175050     0.17000
C486        C  0.06238185  0.51870271  0.29020461     0.29300
C487        C  0.05223415  0.49759412  0.30887130    -0.24600
C488        C  0.04565784  0.47283669  0.29916263    -0.23900
C489        C  0.04957667  0.46948623  0.27016039     0.40700
C490        C  0.05939138  0.49055365  0.25139244    -0.26300
O491        O  0.06980313  0.54279685  0.30079079    -0.58200
H492        H  0.04983496  0.50071299  0.33117931     0.16400
O493        O  0.04281023  0.44553645  0.25965326    -0.59600
H494        H  0.06164900  0.48748542  0.22903267     0.14800
H495        H  0.04828397  0.57893716  0.20376407     0.46700
H496        H  0.05355006  0.54283814  0.30460479     0.42100
H497        H  0.05911635  0.44510784  0.25878790     0.45500
H498        H  0.12262045  0.53685788  0.24039661     0.37000
C499        C  0.19099022  0.42056426  0.35790524    -0.27300
C500        C  0.17125209  0.40164895  0.37482566     0.02300
C501        C  0.17616337  0.38465174  0.39088940     0.30400
C502        C  0.20055487  0.38679838  0.38987738    -0.19000
C503        C  0.22021783  0.40564329  0.37283987    -0.28400
C504        C  0.21530484  0.42269497  0.35688954     0.44500
C505        C  0.14560576  0.39978733  0.37503572     0.05700
O506        O  0.15682297  0.36500309  0.40627573    -0.57000
H507        H  0.20392479  0.37327649  0.40186472     0.18600
O508        O  0.23415290  0.44153217  0.34024326    -0.63700
H509        H  0.18754140  0.43383859  0.34552035     0.17000
C510        C  0.13444997  0.40190521  0.40058095     0.29300
C511        C  0.11074551  0.40121045  0.39997095    -0.24600
C512        C  0.09778510  0.39874157  0.37401515    -0.23900
C513        C  0.10897484  0.39634882  0.34844951     0.40700
C514        C  0.13268412  0.39705199  0.34914861    -0.26300
O515        O  0.14686031  0.40535547  0.42621737    -0.58200
H516        H  0.10275485  0.40309332  0.41995641     0.16400
O517        O  0.09722858  0.39373733  0.32253363    -0.59600
H518        H  0.14106172  0.39545586  0.32929900     0.14800
H519        H  0.24408610  0.45628628  0.35330362     0.46700
H520        H  0.15917132  0.42413910  0.42749243     0.42100
H521        H  0.08698796  0.37488575  0.31912833     0.45500
H522        H  0.16181667  0.36921175  0.42659730     0.37000
C523        C  0.33982955  0.43481244  0.44559618    -0.27300
C524        C  0.32920205  0.41681465  0.46779474     0.02300
C525        C  0.30339447  0.39684379  0.46597488     0.30400
C526        C  0.28848890  0.39511219  0.44209094    -0.19000
C527        C  0.29915485  0.41303538  0.41971318    -0.28400
C528        C  0.32504374  0.43303235  0.42163674     0.44500
C529        C  0.34499672  0.41992148  0.49330957     0.05700
O530        O  0.29263838  0.37893728  0.48739625    -0.57000
H531        H  0.26871309  0.37949107  0.44078057     0.18600
O532        O  0.33566488  0.45153839  0.40075308    -0.63700
H533        H  0.35956939  0.45050245  0.44705303     0.17000
C534        C  0.36981587  0.42584931  0.99101368     0.29300
C535        C  0.38625786  0.42991612  0.01400136    -0.24600
C536        C  0.37831876  0.43034318  0.04208876    -0.23900
C537        C  0.35301877  0.42541040  0.04702493     0.40700
C538        C  0.33648691  0.42107311  0.02397710    -0.26300
O539        O  0.37103972  0.40651025  0.46739854    -0.58200
H540        H  0.40562034  0.43373406  0.00971861     0.16400
O541        O  0.34420971  0.42460152  0.07425167    -0.59600
H542        H  0.31730943  0.41790074  0.02798051     0.14800
H543        H  0.34793779  0.44790150  0.39041500     0.46700
H544        H  0.37226129  0.40811193  0.95883908     0.42100
H545        H  0.34521256  0.44150946  0.07711866     0.45500
H546        H  0.29714564  0.36551287  0.48277254     0.37000
C547        C  0.30712738  0.42371464  0.26764212    -0.27300
C548        C  0.31746162  0.40734067  0.26483638     0.02300
C549        C  0.31240052  0.38871815  0.28600095     0.30400
C550        C  0.29873577  0.38785287  0.31047341    -0.19000
C551        C  0.28973676  0.40526367  0.31414443    -0.28400
C552        C  0.29320412  0.42269380  0.29205680     0.44500
C553        C  0.33641237  0.41230269  0.24207272     0.05700
O554        O  0.32185820  0.37214925  0.28359085    -0.57000
H555        H  0.29588635  0.37409269  0.32712011     0.18600
O556        O  0.28519006  0.44036375  0.29528197    -0.63700
H557        H  0.31121399  0.43841039  0.25172803     0.17000
C558        C  0.33068835  0.41332838  0.21314843     0.29300
C559        C  0.35003837  0.42069529  0.19256232    -0.24600
C560        C  0.37524121  0.42722056  0.20048491    -0.23900
C561        C  0.38066713  0.42543522  0.22941321     0.40700
C562        C  0.36136395  0.41816789  0.24989074    -0.26300
O563        O  0.30619436  0.40678966  0.20484066    -0.58200
H564        H  0.34535730  0.42157787  0.17038387     0.16400
O565        O  0.40512943  0.43236809  0.23821927    -0.59600
H566        H  0.36616169  0.41798388  0.27218016     0.14800
H567        H  0.26940195  0.43375321  0.28347812     0.46700
H568        H  0.30704094  0.42331945  0.20001128     0.42100
H569        H  0.40530009  0.41593086  0.23980446     0.45500
H570        H  0.30860093  0.35720984  0.27261785     0.37000
C571        C  0.95268362  0.63854157  0.11208256    -0.27300
C572        C  0.97324160  0.65618709  0.12910669     0.02300
C573        C  0.97018604  0.67395383  0.14596558     0.30400
C574        C  0.94680418  0.67399723  0.14539404    -0.19000
C575        C  0.92633413  0.65649332  0.12808965    -0.28400
C576        C  0.92933667  0.63848048  0.11162692     0.44500
C577        C  0.99788211  0.65607097  0.12847269     0.05700
O578        O  0.99037816  0.69216831  0.16182092    -0.57000
H579        H  0.94483489  0.68808323  0.15800156     0.18600
O580        O  0.90949918  0.62063561  0.09510491    -0.63700
H581        H  0.95473473  0.62465205  0.09918832     0.17000
C582        C  0.00804000  0.65125275  0.15327737     0.29300
C583        C  0.03112899  0.65079142  0.15194929    -0.24600
C584        C  0.04436680  0.65471945  0.12593733    -0.23900
C585        C  0.03395555  0.65938777  0.10102887     0.40700
C586        C  0.01088267  0.65990141  0.10246836    -0.26300
O587        O  0.99528102  0.64644844  0.17882995    -0.58200
H588        H  0.03846057  0.64696221  0.17138337     0.16400
O589        O  0.04601100  0.66339258  0.07511153    -0.59600
H590        H  0.00314724  0.66346435  0.08317227     0.14800
H591        H  0.89898951  0.60599200  0.10811587     0.46700
H592        H  0.98327245  0.62757262  0.17912323     0.42100
H593        H  0.05716535  0.68236802  0.07349661     0.45500
H594        H  0.98582200  0.68678024  0.18197404     0.37000
C595        C  0.84459873  0.66139285  0.22623927    -0.27300
C596        C  0.81794712  0.64435542  0.22494906     0.02300
C597        C  0.80694321  0.63022329  0.19986329     0.30400
C598        C  0.82249576  0.63350366  0.17625737    -0.19000
C599        C  0.84918094  0.65098838  0.17708498    -0.28400
C600        C  0.86021019  0.66493943  0.20246364     0.44500
C601        C  0.80162156  0.64081115  0.24999753     0.05700
O602        O  0.78097213  0.61310071  0.19826223    -0.57000
H603        H  0.81362759  0.62223362  0.15721284     0.18600
O604        O  0.88605260  0.68249715  0.20408913    -0.63700
H605        H  0.85321802  0.67226634  0.24558175     0.17000
C606        C  0.80317735  0.62804377  0.27438200     0.29300
C607        C  0.78593442  0.62260957  0.29688860    -0.24600
C608        C  0.76691098  0.62982466  0.29559086    -0.23900
C609        C  0.76605923  0.64353221  0.27141137     0.40700
C610        C  0.78333199  0.64885284  0.24884628    -0.26300
O611        O  0.82049651  0.61944022  0.27565715    -0.58200
H612        H  0.78703899  0.61197894  0.31503981     0.16400
O613        O  0.74857757  0.65190757  0.26957916    -0.59600
H614        H  0.78218708  0.65891617  0.23015547     0.14800
H615        H  0.88788383  0.69882077  0.19664224     0.46700
H616        H  0.83553910  0.63301754  0.28613057     0.42100
H617        H  0.73425182  0.63883510  0.25772308     0.45500
H618        H  0.77867692  0.59676760  0.20632357     0.37000
C619        C  0.83728264  0.63726342  0.02614189    -0.27300
C620        C  0.82637134  0.65307691  0.02240563     0.02300
C621        C  0.83175249  0.67257262  0.04261696     0.30400
C622        C  0.84649260  0.67499910  0.06685050    -0.19000
C623        C  0.85642375  0.65841630  0.07121517    -0.28400
C624        C  0.85236272  0.63993708  0.05017177     0.44500
C625        C  0.80752352  0.64740385  0.99896356     0.05700
O626        O  0.82200647  0.68882633  0.03933262    -0.57000
H627        H  0.84964622  0.68948166  0.08269056     0.18600
O628        O  0.86110943  0.62291174  0.05409467    -0.63700
H629        H  0.83303174  0.62187584  0.01113653     0.17000
C630        C  0.81302196  0.64641524  0.47057472     0.29300
C631        C  0.79385864  0.63806397  0.44950721    -0.24600
C632        C  0.76853176  0.63179539  0.45640328    -0.23900
C633        C  0.76286414  0.63484464  0.48491221     0.40700
C634        C  0.78282877  0.64313443  0.00550843    -0.26300
O635        O  0.83767562  0.65297493  0.46300371    -0.58200
H636        H  0.79887160  0.63640973  0.42769810     0.16400
O637        O  0.73841546  0.62867274  0.49284576    -0.59600
H638        H  0.77794435  0.64487929  0.02734840     0.14800
H639        H  0.87644394  0.62924415  0.04161006     0.46700
H640        H  0.83701516  0.63643284  0.45875559     0.42100
H641        H  0.73848712  0.64527744  0.49284293     0.45500
H642        H  0.83524717  0.70368215  0.02822621     0.37000
C643        C  0.67565658  0.75452449  0.36459678    -0.27300
C644        C  0.69421579  0.75248652  0.38091700     0.02300
C645        C  0.71253438  0.77402788  0.39651292     0.30400
C646        C  0.71210611  0.79719090  0.39554439    -0.19000
C647        C  0.69370445  0.79926880  0.37897986    -0.28400
C648        C  0.67525765  0.77764607  0.36360647     0.44500
C649        C  0.69482238  0.72807785  0.38039608     0.05700
O650        O  0.73184590  0.77306215  0.41125050    -0.57000
H651        H  0.72661617  0.81379186  0.40715646     0.18600
O652        O  0.65677768  0.77892266  0.34753176    -0.63700
H653        H  0.66142212  0.73808470  0.35254451     0.17000
C654        C  0.69336425  0.71470258  0.40567112     0.29300
C655        C  0.69406521  0.69171772  0.40440123    -0.24600
C656        C  0.69581828  0.68139055  0.37804136    -0.23900
C657        C  0.69695996  0.69477967  0.35270079     0.40700
C658        C  0.69637951  0.71780564  0.35407794    -0.26300
O659        O  0.69080489  0.72368539  0.43169069    -0.58200
H660        H  0.69292006  0.68183046  0.42419688     0.16400
O661        O  0.69839773  0.68553082  0.32638913    -0.59600
H662        H  0.69736599  0.72783995  0.33443353     0.14800
H663        H  0.64254823  0.77507508  0.36102052     0.46700
H664        H  0.67197468  0.71547515  0.43485616     0.42100
H665        H  0.71707072  0.69391595  0.32208642     0.45500
H666        H  0.72833909  0.77424504  0.43168364     0.37000
C667        C  0.70461920  0.88907200  0.47568395    -0.27300
C668        C  0.68607422  0.89681634  0.47637589     0.02300
C669        C  0.67010785  0.89230399  0.45248979     0.30400
C670        C  0.67293001  0.88041224  0.42822291    -0.19000
C671        C  0.69155335  0.87274071  0.42731304    -0.28400
C672        C  0.70754421  0.87723802  0.45127782     0.44500
C673        C  0.68333039  0.90976983  0.50185706     0.05700
O674        O  0.65158752  0.89937904  0.45274321    -0.57000
H675        H  0.66031601  0.87691875  0.41011919     0.18600
O676        O  0.72639809  0.87063489  0.45084966    -0.63700
H677        H  0.71443298  0.89036275  0.99280056     0.17000
C678        C  0.67032646  0.89409028  0.02494947     0.29300
C679        C  0.66460391  0.90576594  0.04746321    -0.24600
C680        C  0.66939173  0.93126904  0.04512359    -0.23900
C681        C  0.68116085  0.94530886  0.01996692     0.40700
C682        C  0.68647582  0.93342536  0.99737441    -0.26300
O683        O  0.66419376  0.86881314  0.02733961    -0.58200
H684        H  0.65572970  0.89449992  0.06649030     0.16400
O685        O  0.68686810  0.97038506  0.01674987    -0.59600
H686        H  0.69504367  0.94545134  0.47952813     0.14800
H687        H  0.74149029  0.88547816  0.44179178     0.46700
H688        H  0.67941761  0.86940791  0.03641037     0.42100
H689        H  0.70495119  0.98098728  0.02331715     0.45500
H690        H  0.63628282  0.88468137  0.46169433     0.37000
C691        C  0.71250556  0.90783303  0.28999134    -0.27300
C692        C  0.69127957  0.89453629  0.27173218     0.02300
C693        C  0.67306968  0.86854832  0.27753141     0.30400
C694        C  0.67559184  0.85667403  0.30209857    -0.19000
C695        C  0.69593007  0.87055976  0.32127599    -0.28400
C696        C  0.71488203  0.89603958  0.31465203     0.44500
C697        C  0.68709873  0.90854025  0.24820060     0.05700
O698        O  0.65207297  0.85502637  0.26012629    -0.57000
H699        H  0.66089552  0.83703406  0.30696957     0.18600
O700        O  0.73537768  0.90980354  0.33261666    -0.63700
H701        H  0.72688157  0.92767691  0.28551542     0.17000
C702        C  0.68495337  0.93046199  0.25398102     0.29300
C703        C  0.67883029  0.94232016  0.23202678    -0.24600
C704        C  0.67468626  0.93261318  0.20404888    -0.23900
C705        C  0.67795488  0.91125912  0.19808856     0.40700
C706        C  0.68397228  0.89935535  0.22012403    -0.26300
O707        O  0.68701267  0.93932550  0.28141741    -0.58200
H708        H  0.67628162  0.95853060  0.23723679     0.16400
O709        O  0.67479222  0.90146703  0.17096893    -0.59600
H710        H  0.68587478  0.88267786  0.21535671     0.14800
H711        H  0.74870686  0.90571229  0.32639035     0.46700
H712        H  0.70440791  0.95481893  0.28262423     0.42100
H713        H  0.69188033  0.91169063  0.16173497     0.45500
H714        H  0.63868041  0.85853182  0.26770036     0.37000
C715        C  0.75354999  0.09698139  0.14553518    -0.27300
C716        C  0.76695847  0.10542708  0.11963683     0.02300
C717        C  0.75684388  0.08997053  0.09512471     0.30400
C718        C  0.73403798  0.06609601  0.09700261    -0.19000
C719        C  0.72086147  0.05723647  0.12312464    -0.28400
C720        C  0.73065703  0.07327725  0.14740970     0.44500
C721        C  0.79236936  0.12945301  0.11920837     0.05700
O722        O  0.76997889  0.09725965  0.06971796    -0.57000
H723        H  0.72699931  0.05426208  0.07798794     0.18600
O724        O  0.71825904  0.06596435  0.17321986    -0.63700
H725        H  0.76103577  0.10878942  0.16452939     0.17000
C726        C  0.79763959  0.14999204  0.10056140     0.29300
C727        C  0.82194907  0.17233366  0.10089048    -0.24600
C728        C  0.84117364  0.17474881  0.11996865    -0.23900
C729        C  0.83580835  0.15416627  0.13860725     0.40700
C730        C  0.81158477  0.13186181  0.13819019    -0.26300
O731        O  0.77906033  0.14866390  0.08237076    -0.58200
H732        H  0.82559903  0.18807301  0.08664822     0.16400
O733        O  0.85417845  0.15550784  0.15714660    -0.59600
H734        H  0.80784593  0.11619542  0.15259534     0.14800
H735        H  0.70607603  0.07262091  0.17319085     0.46700
H736        H  0.76885238  0.15424745  0.09388813     0.42100
H737        H  0.86463991  0.15009853  0.14582424     0.45500
H738        H  0.75943869  0.10152561  0.05693863     0.37000
C739        C  0.97274813  0.31439735  0.24581127    -0.27300
C740        C  0.94807392  0.29303470  0.24953220     0.02300
C741        C  0.93624225  0.28832380  0.27645420     0.30400
C742        C  0.94867834  0.30563179  0.29891175    -0.19000
C743        C  0.97297980  0.32785796  0.29490626    -0.28400
C744        C  0.98527356  0.33166318  0.26815082     0.44500
C745        C  0.93422524  0.27724797  0.22441296     0.05700
O746        O  0.91215065  0.26744465  0.28072172    -0.57000
H747        H  0.93885043  0.30201061  0.31923788     0.18600
O748        O  0.00899640  0.35279511  0.26302343    -0.63700
H749        H  0.98208082  0.31807924  0.22515410     0.17000
C750        C  0.92917621  0.28879797  0.20101497     0.29300
C751        C  0.91785718  0.27450640  0.17637121    -0.24600
C752        C  0.91112346  0.24849093  0.17463261    -0.23900
C753        C  0.91526561  0.23657951  0.19844445     0.40700
C754        C  0.92686145  0.25103426  0.22316653    -0.26300
O755        O  0.93555438  0.31421351  0.20194743    -0.58200
H756        H  0.91439786  0.28382719  0.15843711     0.16400
O757        O  0.90950063  0.21135725  0.19710255    -0.59600
H758        H  0.93074425  0.24199270  0.24105415     0.14800
H759        H  0.02155896  0.34704143  0.26725252     0.46700
H760        H  0.92049932  0.31415345  0.21077803     0.42100
H761        H  0.89334510  0.20151408  0.20810957     0.45500
H762        H  0.89998018  0.27319965  0.27460524     0.37000
C763        C  0.91623926  0.26531954  0.02235893    -0.27300
C764        C  0.94312686  0.27675972  0.02060723     0.02300
C765        C  0.95654710  0.27253844  0.04269082     0.30400
C766        C  0.94314737  0.25765562  0.06640180    -0.19000
C767        C  0.91628684  0.24680917  0.06861341    -0.28400
C768        C  0.90279419  0.25043489  0.04606807     0.44500
C769        C  0.95700961  0.29500636  0.99705859     0.05700
O770        O  0.98283941  0.28348503  0.04168510    -0.57000
H771        H  0.95385949  0.25498922  0.08342172     0.18600
O772        O  0.87681392  0.24137245  0.04807206    -0.63700
H773        H  0.90572033  0.26894016  0.00589976     0.17000
C774        C  0.94570495  0.28514972  0.47087226     0.29300
C775        C  0.95693757  0.30366789  0.44928516    -0.24600
C776        C  0.97733928  0.32861902  0.45537774    -0.23900
C777        C  0.98709253  0.33443851  0.48353223     0.40700
C778        C  0.97547450  0.32057052  0.00361030    -0.26300
O779        O  0.92584813  0.26096990  0.46429001    -0.58200
H780        H  0.94935364  0.29855346  0.42778677     0.16400
O781        O  0.00685852  0.35850073  0.49062854    -0.59600
H782        H  0.98047354  0.32645291  0.02566327     0.14800
H783        H  0.86865998  0.22669767  0.03456063     0.46700
H784        H  0.91042716  0.26288915  0.46228688     0.42100
H785        H  0.99837028  0.36835922  0.49657161     0.45500
H786        H  0.98597949  0.27164699  0.02979784     0.37000
C787        C  0.38288504  0.96745089  0.34873707    -0.27300
C788        C  0.36992952  0.95651219  0.37434530     0.02300
C789        C  0.38143787  0.96835044  0.40040125     0.30400
C790        C  0.40562096  0.99077260  0.40062451    -0.19000
C791        C  0.41879489  0.00192832  0.37500751    -0.28400
C792        C  0.40704212  0.98996427  0.34884020     0.44500
C793        C  0.34475533  0.93231890  0.37373999     0.05700
O794        O  0.36913409  0.95817428  0.42579876    -0.57000
H795        H  0.41396100  0.99950160  0.42102122     0.18600
O796        O  0.41908264  0.99972600  0.32321793    -0.63700
H797        H  0.37435025  0.95831015  0.32854837     0.17000
C798        C  0.32344871  0.93087490  0.35931111     0.29300
C799        C  0.29988991  0.90764241  0.35891854    -0.24600
C800        C  0.29726300  0.88565025  0.37277603    -0.23900
C801        C  0.31867396  0.88711595  0.38705791     0.40700
C802        C  0.34218226  0.91032345  0.38742381    -0.26300
O803        O  0.32525240  0.95231314  0.34646162    -0.58200
H804        H  0.28355457  0.90684980  0.34800646     0.16400
O805        O  0.31712697  0.86562537  0.39948742    -0.59600
H806        H  0.35858483  0.91108027  0.39813976     0.14800
H807        H  0.41196304  0.01050766  0.31615643     0.46700
H808        H  0.32732595  0.95019149  0.32581965     0.42100
H809        H  0.31686246  0.86829284  0.42036194     0.45500
H810        H  0.35822641  0.96608077  0.42913760     0.37000
C811        C  0.17015401  0.75744473  0.01555161    -0.27300
C812        C  0.18847927  0.75974365  0.49448427     0.02300
C813        C  0.20221364  0.74437839  0.00926727     0.30400
C814        C  0.19083580  0.72651518  0.03138800    -0.19000
C815        C  0.16868404  0.72334958  0.04507099    -0.28400
C816        C  0.15839140  0.73902410  0.03722413     0.44500
C817        C  0.20245567  0.77724172  0.47040873     0.05700
O818        O  0.16030655  0.72605205  0.46196363    -0.57000
H819        H  0.19892088  0.71453102  0.03735047     0.18600
O820        O  0.13702633  0.73663599  0.05076559    -0.63700
H821        H  0.16219183  0.76960746  0.00998888     0.17000
C822        C  0.20360991  0.80119955  0.46715506     0.29300
C823        C  0.21617339  0.81678699  0.44346068    -0.24600
C824        C  0.22741185  0.80858234  0.42276394    -0.23900
C825        C  0.22683839  0.78498772  0.42642031     0.40700
C826        C  0.21454768  0.76957968  0.45017556    -0.26300
O827        O  0.19197279  0.80920630  0.48658041    -0.58200
H828        H  0.21645951  0.83490163  0.44075605     0.16400
O829        O  0.23864935  0.77709344  0.40706625    -0.59600
H830        H  0.21426438  0.75144904  0.45271903     0.14800
H831        H  0.14375988  0.74796798  0.06778891     0.46700
H832        H  0.17389993  0.80161607  0.47992959     0.42100
H833        H  0.22459884  0.76444232  0.39462015     0.45500
H834        H  0.14602258  0.72956925  0.45849418     0.37000
C835        C  0.18735117  0.78760815  0.28854144    -0.27300
C836        C  0.20209924  0.78273812  0.26899279     0.02300
C837        C  0.22900903  0.79500766  0.27259662     0.30400
C838        C  0.24059658  0.81065999  0.29648944    -0.19000
C839        C  0.22559375  0.81410180  0.31712227    -0.28400
C840        C  0.19887763  0.80308541  0.31254390     0.44500
C841        C  0.18903196  0.76320141  0.24636507     0.05700
O842        O  0.24396762  0.79080200  0.25365695    -0.57000
H843        H  0.26114519  0.81893367  0.29971224     0.18600
O844        O  0.18396208  0.80742912  0.33144090    -0.63700
H845        H  0.16670090  0.77872828  0.28562925     0.17000
C846        C  0.17131721  0.73744748  0.25361213     0.29300
C847        C  0.16013347  0.71874082  0.23222509    -0.24600
C848        C  0.16641429  0.72528429  0.20340354    -0.23900
C849        C  0.18365646  0.75126658  0.19612214     0.40700
C850        C  0.19490244  0.76995612  0.21756586    -0.26300
O851        O  0.16602618  0.73011854  0.28168378    -0.58200
H852        H  0.14714679  0.69889581  0.23832634     0.16400
O853        O  0.18975078  0.75862364  0.16816134    -0.59600
H854        H  0.20833748  0.78976373  0.21173490     0.14800
H855        H  0.17303204  0.79071020  0.34116134     0.46700
H856        H  0.14911071  0.72878086  0.28551052     0.42100
H857        H  0.17580401  0.76155315  0.16108940     0.45500
H858        H  0.24360315  0.77495702  0.26050673     0.37000
C859        C  0.46190871  0.29895621  0.11092455    -0.27300
C860        C  0.44545398  0.30294593  0.12880592     0.02300
C861        C  0.42785757  0.28264919  0.14636012     0.30400
C862        C  0.42689636  0.25877364  0.14579749    -0.19000
C863        C  0.44330795  0.25474792  0.12783849    -0.28400
C864        C  0.46106751  0.27518275  0.11047839     0.44500
C865        C  0.44626594  0.32809612  0.12810239     0.05700
O866        O  0.41061764  0.28557276  0.16292374    -0.57000
H867        H  0.41294479  0.24319374  0.15904134     0.18600
O868        O  0.47784855  0.27220984  0.09316625    -0.63700
H869        H  0.47558179  0.31443314  0.09736363     0.17000
C870        C  0.45166775  0.34337012  0.15277919     0.29300
C871        C  0.45204407  0.36693623  0.15145631    -0.24600
C872        C  0.44740612  0.37593039  0.12557674    -0.23900
C873        C  0.44223379  0.36056748  0.10080618     0.40700
C874        C  0.44186997  0.33703694  0.10223054    -0.26300
O875        O  0.45694231  0.33560856  0.17822505    -0.58200
H876        H  0.45623551  0.37829699  0.17077427     0.16400
O877        O  0.43739624  0.36819906  0.07503056    -0.59600
H878        H  0.43777113  0.32550119  0.08304900     0.14800
H879        H  0.49271475  0.27583417  0.10556176     0.46700
H880        H  0.47570451  0.34192226  0.17780316     0.42100
H881        H  0.41841365  0.36048849  0.07422241     0.45500
H882        H  0.41635359  0.28609217  0.18289878     0.37000
C883        C  0.43388989  0.14574725  0.21021118    -0.27300
C884        C  0.45547483  0.16057572  0.22752243     0.02300
C885        C  0.47214569  0.18673808  0.22079263     0.30400
C886        C  0.46713190  0.19761055  0.19689163    -0.19000
C887        C  0.44573073  0.18265460  0.17936396    -0.28400
C888        C  0.42893293  0.15658789  0.18633499     0.44500
C889        C  0.46105472  0.14809376  0.25159056     0.05700
O890        O  0.49430576  0.20123644  0.23622821    -0.57000
H891        H  0.48055303  0.21751642  0.19141108     0.18600
O892        O  0.40781036  0.14143901  0.16970045    -0.63700
H893        H  0.42093345  0.12559802  0.21513329     0.17000
C894        C  0.46460960  0.15795247  0.27952053     0.29300
C895        C  0.47105623  0.14643309  0.30154172    -0.24600
C896        C  0.47358065  0.12465750  0.29635540    -0.23900
C897        C  0.46900008  0.11422203  0.26848549     0.40700
C898        C  0.46281559  0.12595631  0.24645890    -0.26300
O899        O  0.46169805  0.17875932  0.28557011    -0.58200
H900        H  0.47404747  0.15461614  0.32278098     0.16400
O901        O  0.47078346  0.09277214  0.26233141    -0.59600
H902        H  0.45988295  0.11801202  0.22509380     0.14800
H903        H  0.39416003  0.14477351  0.17664746     0.46700
H904        H  0.44302879  0.17144982  0.28907165     0.42100
H905        H  0.48884725  0.09949245  0.25609005     0.45500
H906        H  0.49183896  0.21446906  0.24615574     0.37000
C907        C  0.46617649  0.18144503  0.03359676    -0.27300
C908        C  0.44613651  0.15712506  0.02506781     0.02300
C909        C  0.42304491  0.14520730  0.04091581     0.30400
C910        C  0.42058722  0.15734638  0.06530634    -0.19000
C911        C  0.44079650  0.18153432  0.07382310    -0.28400
C912        C  0.46362489  0.19362691  0.05774544     0.44500
C913        C  0.45041380  0.14401559  0.00061444     0.05700
O914        O  0.40296021  0.12160790  0.03298286    -0.57000
H915        H  0.40303714  0.14779148  0.07778529     0.18600
O916        O  0.48393606  0.21692461  0.06613578    -0.63700
H917        H  0.48424193  0.19066221  0.02201805     0.17000
C918        C  0.45650041  0.15537525  0.47178522     0.29300
C919        C  0.46429183  0.14413589  0.45075926    -0.24600
C920        C  0.46361784  0.12060481  0.45569994    -0.23900
C921        C  0.45328363  0.10762960  0.48178546     0.40700
C922        C  0.44736226  0.11937961  0.00422834    -0.26300
O923        O  0.45791691  0.17854516  0.46620918    -0.58200
H924        H  0.47151888  0.15431865  0.43075036     0.16400
O925        O  0.45090761  0.08402199  0.48720786    -0.59600
H926        H  0.44025979  0.10924198  0.02428933     0.14800
H927        H  0.49354878  0.21264653  0.08031157     0.46700
H928        H  0.44049449  0.17403312  0.45940581     0.42100
H929        H  0.46660443  0.08778048  0.49811986     0.45500
H930        H  0.39385378  0.12532373  0.01766823     0.37000
C931        C  0.44365107  0.23122228  0.62584317     0.03500
C932        C  0.44173897  0.21865922  0.59981583    -0.10100
C933        C  0.44086091  0.19479490  0.59944475     0.01000
C934        C  0.44160495  0.18333546  0.62522664    -0.11200
C935        C  0.44375735  0.19574823  0.65129804     0.03500
C936        C  0.44469992  0.21961988  0.65149382    -0.10600
H937        H  0.44094290  0.22738234  0.57984407     0.09100
H938        H  0.44177762  0.16531740  0.62488426     0.06600
H939        H  0.44670510  0.22937397  0.67163264     0.06500
C940        C  0.27225626  0.85968055  0.87445379     0.03500
C941        C  0.26103011  0.84731075  0.84853347    -0.12700
C942        C  0.23812936  0.82340567  0.84833642     0.01000
C943        C  0.22687199  0.81150976  0.87436490    -0.11200
C944        C  0.23767852  0.82354967  0.90058615     0.03500
C945        C  0.25998904  0.84806866  0.90029614    -0.10600
H946        H  0.27029873  0.85609917  0.82849198     0.09100
H947        H  0.21015774  0.79230713  0.87409484     0.06600
H948        H  0.26793603  0.85818287  0.92017473     0.06500
C949        C  0.86879042  0.19776761  0.62580840     0.03500
C950        C  0.88083167  0.20871241  0.59968229    -0.12700
C951        C  0.90486956  0.23139995  0.59906547     0.01000
C952        C  0.91718739  0.24297156  0.62474384    -0.11200
C953        C  0.90571898  0.23221383  0.65108398     0.03500
C954        C  0.88140933  0.20967998  0.65142476    -0.10600
H955        H  0.87146120  0.19966944  0.57975951     0.09100
H956        H  0.93520300  0.26112812  0.62409509     0.06600
H957        H  0.87205524  0.20178653  0.67166995     0.06500
C958        C  0.69445133  0.82397294  0.87494772     0.03500
C959        C  0.69383683  0.83618733  0.90024869    -0.12700
C960        C  0.69390229  0.85964432  0.89913377     0.01000
C961        C  0.69537258  0.87104853  0.87251961    -0.11200
C962        C  0.69624500  0.85903451  0.84721574     0.03500
C963        C  0.69544053  0.83532368  0.84849817    -0.10600
H964        H  0.69236534  0.82695014  0.92061794     0.09100
H965        H  0.69531226  0.88910528  0.87144569     0.06600
H966        H  0.69593789  0.82587138  0.82896258     0.06500
C967        C  0.90268470  0.65977080  0.62634430     0.03500
C968        C  0.89253042  0.66157443  0.59993976    -0.12700
C969        C  0.86912162  0.66153720  0.59861986     0.01000
C970        C  0.85629989  0.66034719  0.62406592    -0.11200
C971        C  0.86608048  0.65839563  0.65061187     0.03500
C972        C  0.88944846  0.65829119  0.65161782    -0.10600
H973        H  0.90281796  0.66285900  0.58044390     0.09100
H974        H  0.83811330  0.66011077  0.62313050     0.06600
H975        H  0.89679588  0.65591111  0.67185459     0.06500
C976        C  0.24526286  0.40880690  0.87408444     0.03500
C977        C  0.25905701  0.41159968  0.89933489    -0.12700
C978        C  0.28303062  0.41299719  0.89824710     0.01000
C979        C  0.29311775  0.41128872  0.87199556    -0.11200
C980        C  0.27938689  0.40799889  0.84663907     0.03500
C981        C  0.25531440  0.40655363  0.84782904    -0.10600
H982        H  0.25150809  0.41336722  0.91970634     0.09100
H983        H  0.31186199  0.41269268  0.87135893     0.06600
H984        H  0.24428574  0.40344973  0.82842415     0.06500
O985        O  0.97516258  0.34901977  0.83823899    -0.78100
C986        C  0.98918047  0.35194020  0.93044962     0.82900
O987        O  0.96482199  0.41831664  0.87280718    -0.79200
O988        O  0.04147741  0.43704719  0.93091825    -0.80700
O989        O  0.06472297  0.40404130  0.84929466    -0.80500
O990        O  0.00993521  0.37347295  0.81192648    -0.79100
Zn991      Zn  0.97847984  0.36954865  0.87348459     1.55700
O992        O  0.06462110  0.40427296  0.89680767    -0.80500
Cd993      Cd  0.03136449  0.40451084  0.83844959     1.59700
Cd994      Cd  0.00407330  0.43136174  0.87364957     1.59600
O995        O  0.04150959  0.43810436  0.81591752    -0.80500
O996        O  0.01087888  0.40195806  0.87320974    -1.91000
Cd997      Cd  0.03132734  0.40405176  0.90771300     1.59900
O998        O  0.02204114  0.45591756  0.83953802    -0.80500
O999        O  0.01067989  0.37260687  0.93383440    -0.79100
C1000       C  0.94539531  0.39555248  0.87344599     0.83400
C1001       C  0.98832805  0.35295471  0.81554745     0.83000
O1002       O  0.97554067  0.34807401  0.90810961    -0.78100
C1003       C  0.07498745  0.40405823  0.87317692     0.83900
O1004       O  0.94827224  0.37583494  0.87393199    -0.78200
C1005       C  0.03621344  0.45610179  0.81913795     0.84000
C1006       C  0.03451432  0.45392848  0.92942559     0.84300
O1007       O  0.01950498  0.45348431  0.90986185    -0.80600
O1008       O  0.16828990  0.70884107  0.58581329    -0.78100
C1009       C  0.15795016  0.70642369  0.67886112     0.82900
O1010       O  0.17642357  0.63725621  0.62140692    -0.79200
O1011       O  0.10221131  0.62247260  0.68069150    -0.80700
O1012       O  0.07809846  0.65389386  0.59833386    -0.80500
O1013       O  0.13294386  0.68491050  0.56003313    -0.79100
Zn1014     Zn  0.16526905  0.68777183  0.62069092     1.55700
O1015       O  0.07978692  0.65594708  0.64585451    -0.80500
Cd1016     Cd  0.11141573  0.65347372  0.58661738     1.59700
Cd1017     Cd  0.13760303  0.62573484  0.62258644     1.59600
O1018       O  0.10080271  0.61953373  0.56388770    -0.80500
O1019       O  0.13213309  0.65599738  0.62145754    -1.91000
Cd1020     Cd  0.11291598  0.65533886  0.65659569     1.59900
O1021       O  0.11945403  0.60145761  0.58851758    -0.80500
O1022       O  0.13562789  0.68678516  0.68242311    -0.79100
C1023       C  0.19631489  0.65964402  0.61998036     0.83400
C1024       C  0.15481002  0.70528981  0.56341772     0.83000
O1025       O  0.17082762  0.70935314  0.65613553    -0.78100
C1026       C  0.06862290  0.65506406  0.62232869     0.83900
O1027       O  0.19434071  0.67987817  0.61919575    -0.78200
C1028       C  0.10557209  0.60119945  0.56774697     0.84000
C1029       C  0.10786071  0.60462476  0.67915859     0.84300
O1030       O  0.12181451  0.60394761  0.65903088    -0.80600
O1031       O  0.48950688  0.12732675  0.84257363    -0.78100
C1032       C  0.47572996  0.11156525  0.93461435     0.82900
O1033       O  0.56767472  0.13695181  0.88088436    -0.79200
O1034       O  0.50886726  0.05894152  0.93590585    -0.80700
O1035       O  0.45430920  0.03783750  0.85148437    -0.80500
O1036       O  0.48052458  0.09337814  0.81555965    -0.79100
Zn1037     Zn  0.50518133  0.12279351  0.87847787     1.55700
O1038       O  0.45271436  0.03648224  0.89898658    -0.80500
Cd1039     Cd  0.48871915  0.07112858  0.84253725     1.59700
Cd1040     Cd  0.54165759  0.09766265  0.87955458     1.59600
O1041       O  0.51280482  0.06136523  0.82099617    -0.80500
O1042       O  0.50536019  0.09054408  0.87826739    -1.91000
Cd1043     Cd  0.48605024  0.06937537  0.91214497     1.59900
O1044       O  0.54989228  0.08176310  0.84488453    -0.80500
O1045       O  0.47472539  0.08996296  0.93813318    -0.79100
C1046       C  0.56394633  0.15614010  0.88099194     0.83400
C1047       C  0.48146477  0.11491175  0.81921858     0.83000
O1048       O  0.48610375  0.12525807  0.91248110    -0.78100
C1049       C  0.44290726  0.02695897  0.87466993     0.83900
O1050       O  0.54127623  0.15288297  0.88030645    -0.78200
C1051       C  0.53630428  0.06745520  0.82434840     0.84000
C1052       C  0.53249755  0.06501415  0.93386292     0.84300
O1053       O  0.54715648  0.08004785  0.91441373    -0.80600
O1054       O  0.65168622  0.92967950  0.59257059    -0.78100
C1055       C  0.66492239  0.94444522  0.68326719     0.82900
O1056       O  0.57305540  0.92161947  0.63058878    -0.79200
O1057       O  0.63350803  0.99751101  0.68763003    -0.80700
O1058       O  0.68712077  0.02175579  0.60365899    -0.80500
O1059       O  0.66557510  0.96601114  0.56819492    -0.79100
Zn1060     Zn  0.63508939  0.93414909  0.62779000     1.55700
O1061       O  0.68794419  0.02240638  0.65112882    -0.80500
Cd1062     Cd  0.65465650  0.98695824  0.59389217     1.59700
Cd1063     Cd  0.60024961  0.96092098  0.63025057     1.59600
O1064       O  0.63082408  0.99562016  0.57075848    -0.80500
O1065       O  0.63635150  0.96710683  0.62875096    -1.91000
Cd1066     Cd  0.65589642  0.98783295  0.66279475     1.59900
O1067       O  0.59368515  0.97755863  0.59476258    -0.80500
O1068       O  0.66740684  0.96664906  0.68726380    -0.79100
C1069       C  0.57608822  0.90199126  0.62981373     0.83400
C1070       C  0.66280363  0.94358330  0.57081231     0.83000
O1071       O  0.65341246  0.93077703  0.66152030    -0.78100
C1072       C  0.69735421  0.03298141  0.62713723     0.83900
O1073       O  0.59852933  0.90467077  0.62881984    -0.78200
C1074       C  0.60771330  0.99078077  0.57382769     0.84000
C1075       C  0.61013353  0.99222330  0.68620000     0.84300
O1076       O  0.59506208  0.97811607  0.66632989    -0.80600
C1077       C  0.73442221  0.38326344  0.87795972     0.03500
C1078       C  0.75954960  0.38708499  0.87842700    -0.12700
C1079       C  0.76361034  0.36595655  0.87986882     0.01000
C1080       C  0.74233362  0.34088808  0.88143544    -0.11200
C1081       C  0.71715065  0.33681583  0.88127493     0.03500
C1082       C  0.71333606  0.35806384  0.87945746    -0.10600
H1083       H  0.77595298  0.40647268  0.87739397     0.09100
H1084       H  0.74538545  0.32452361  0.88240143     0.06600
H1085       H  0.69389923  0.35495680  0.87901360     0.06500
C1086       C  0.40857289  0.67401462  0.62055879     0.03500
C1087       C  0.42869010  0.69978801  0.62138241    -0.12700
C1088       C  0.42340800  0.72016834  0.62238148     0.01000
C1089       C  0.39763114  0.71445296  0.62236664    -0.11200
C1090       C  0.37741400  0.68879382  0.62188254     0.03500
C1091       C  0.38292466  0.66865810  0.62102930    -0.10600
H1092       H  0.44849755  0.70396680  0.62134083     0.09100
H1093       H  0.39322949  0.72994063  0.62249032     0.06600
H1094       H  0.36724255  0.64884853  0.62078891     0.06500
O1095       O  0.39288517  0.44806757  0.58770641    -0.78100
C1096       C  0.39572550  0.43729093  0.68132880     0.82900
O1097       O  0.46211450  0.52604768  0.62441742    -0.79200
O1098       O  0.48071913  0.46956799  0.68233466    -0.80700
O1099       O  0.44606836  0.41083999  0.60198284    -0.80500
O1100       O  0.41573743  0.43500056  0.56282169    -0.79100
Zn1101     Zn  0.41300079  0.46406650  0.62376258     1.55700
O1102       O  0.44782616  0.41232568  0.64952783    -0.80500
Cd1103     Cd  0.44647640  0.44435426  0.59002953     1.59700
Cd1104     Cd  0.47449862  0.49946237  0.62383921     1.59600
O1105       O  0.47950537  0.46724030  0.56683761    -0.80500
O1106       O  0.44497569  0.46339572  0.62427390    -1.91000
Cd1107     Cd  0.44757146  0.44593761  0.65941905     1.59900
O1108       O  0.49636573  0.50567737  0.58787314    -0.80500
O1109       O  0.41636359  0.43652770  0.68534315    -0.79100
C1110       C  0.43952887  0.52305196  0.62462457     0.83400
C1111       C  0.39624257  0.43804365  0.56530888     0.83000
O1112       O  0.39164521  0.44603444  0.65828890    -0.78100
C1113       C  0.44685693  0.40116872  0.62598620     0.83900
O1114       O  0.41963907  0.50060821  0.62468133    -0.78200
C1115       C  0.49650228  0.49108378  0.56818533     0.84000
C1116       C  0.49885801  0.49274507  0.67884020     0.84300
O1117       O  0.49888934  0.50647199  0.65803824    -0.80600
O1118       O  0.75258712  0.61285743  0.84085848    -0.78100
C1119       C  0.74907782  0.62207354  0.93336561     0.82900
O1120       O  0.68303576  0.53274303  0.87351959    -0.79200
O1121       O  0.66321105  0.59055998  0.93069555    -0.80700
O1122       O  0.69651385  0.64650182  0.85135806    -0.80500
O1123       O  0.72884629  0.62434610  0.81498977    -0.79100
Zn1124     Zn  0.73175685  0.59494006  0.87553867     1.55700
O1125       O  0.69782595  0.64729068  0.89878215    -0.80500
Cd1126     Cd  0.69733016  0.61361415  0.84064889     1.59700
Cd1127     Cd  0.67031859  0.55910279  0.87408860     1.59600
O1128       O  0.66457785  0.59071298  0.81705019    -0.80500
O1129       O  0.69965231  0.59532592  0.87510634    -1.91000
Cd1130     Cd  0.69754821  0.61364242  0.90970640     1.59900
O1131       O  0.64725416  0.55252599  0.83857835    -0.80500
O1132       O  0.72859585  0.62329727  0.93683173    -0.79100
C1133       C  0.70569924  0.53591606  0.87348630     0.83400
C1134       C  0.74913674  0.62287650  0.81849041     0.83000
O1135       O  0.75267889  0.61240248  0.91079012    -0.78100
C1136       C  0.69696760  0.65719865  0.87498581     0.83900
O1137       O  0.72547650  0.55844356  0.87438571    -0.78200
C1138       C  0.64710389  0.56709907  0.81882381     0.84000
C1139       C  0.64582739  0.56695318  0.92799385     0.84300
O1140       O  0.64678739  0.55236260  0.90882916    -0.80600
C1141       C  0.56547502  0.53380919  0.71112247    -0.27300
C1142       C  0.56183525  0.52366826  0.73885068     0.02300
C1143       C  0.53719966  0.50374147  0.74697089     0.30400
C1144       C  0.51688176  0.49391397  0.72723566    -0.19000
C1145       C  0.52057928  0.50387626  0.69938309    -0.28400
C1146       C  0.54517076  0.52413812  0.69147947     0.44500
C1147       C  0.58383307  0.53456085  0.75913660     0.05700
O1148       O  0.53250582  0.49477363  0.77455580    -0.57000
H1149       H  0.49805331  0.47868685  0.73393399     0.18600
O1150       O  0.54973823  0.53448338  0.66452816    -0.63700
H1151       H  0.58428194  0.54916703  0.70454469     0.17000
C1152       C  0.59101208  0.51864270  0.77399044     0.29300
C1153       C  0.61154671  0.52946754  0.79335789    -0.24600
C1154       C  0.62582856  0.55628119  0.79766636    -0.23900
C1155       C  0.61911644  0.57226832  0.78207547     0.40700
C1156       C  0.59827483  0.56136329  0.76312007    -0.26300
O1157       O  0.57842350  0.49252521  0.76937840    -0.58200
H1158       H  0.61654380  0.51681084  0.80473141     0.16400
O1159       O  0.63251669  0.59855609  0.78540069    -0.59600
H1160       H  0.59316703  0.57392150  0.75170479     0.14800
H1161       H  0.55492450  0.52386407  0.65311586     0.46700
H1162       H  0.58652898  0.49015341  0.75208941     0.42100
H1163       H  0.62370456  0.60212600  0.80113390     0.45500
H1164       H  0.52798185  0.47641966  0.77340671     0.37000
C1165       C  0.53620318  0.50049996  0.50137814    -0.27300
C1166       C  0.55862674  0.52388641  0.50758908     0.02300
C1167       C  0.56009928  0.53681343  0.53321668     0.30400
C1168       C  0.53956282  0.52610021  0.55241363    -0.19000
C1169       C  0.51733680  0.50230282  0.54667524    -0.28400
C1170       C  0.51565689  0.48966343  0.52064407     0.44500
C1171       C  0.58049476  0.53423132  0.98385985     0.05700
O1172       O  0.58175195  0.55969385  0.53999915    -0.57000
H1173       H  0.54136270  0.53625660  0.57219045     0.18600
O1174       O  0.49412721  0.46672766  0.51375333    -0.63700
H1175       H  0.53599948  0.48835367  0.98033549     0.17000
C1176       C  0.59217423  0.51985117  0.97559530     0.29300
C1177       C  0.61345114  0.53076726  0.95733368    -0.24600
C1178       C  0.62355494  0.55607918  0.94735018    -0.23900
C1179       C  0.61167883  0.57035446  0.95522574     0.40700
C1180       C  0.59023284  0.55935678  0.97324482    -0.26300
O1181       O  0.58378314  0.49564809  0.98646799    -0.58200
H1182       H  0.62241651  0.51958166  0.95142452     0.16400
O1183       O  0.62062157  0.59488999  0.94509981    -0.59600
H1184       H  0.58282891  0.57153152  0.48411928     0.14800
H1185       H  0.48244998  0.47158202  0.50406856     0.46700
H1186       H  0.57476392  0.48361142  0.97044890     0.42100
H1187       H  0.61164920  0.59266424  0.92661622     0.45500
H1188       H  0.59354027  0.55477169  0.54926054     0.37000
C1189       C  0.45295746  0.59231680  0.61951295    -0.27300
C1190       C  0.42816086  0.58877084  0.62292091     0.02300
C1191       C  0.40729781  0.56377207  0.62746332     0.30400
C1192       C  0.41131414  0.54268711  0.62817853    -0.19000
C1193       C  0.43611271  0.54601881  0.62448670    -0.28400
C1194       C  0.45705656  0.57124955  0.62012223     0.44500
C1195       C  0.42412566  0.61120477  0.62165868     0.05700
O1196       O  0.38287764  0.55976175  0.63133770    -0.57000
H1197       H  0.39487344  0.52365065  0.63168388     0.18600
O1198       O  0.48161375  0.57564959  0.61625171    -0.63700
H1199       H  0.46916644  0.61148684  0.61591102     0.17000
C1200       C  0.43574745  0.63128385  0.64176870     0.29300
C1201       C  0.43078296  0.65177892  0.64095764    -0.24600
C1202       C  0.41438356  0.65268004  0.62011207    -0.23900
C1203       C  0.40337330  0.63293552  0.59945417     0.40700
C1204       C  0.40814353  0.61231572  0.60045434    -0.26300
O1205       O  0.45091440  0.63033792  0.66315191    -0.58200
H1206       H  0.43930268  0.66672705  0.65707673     0.16400
O1207       O  0.38801222  0.63367054  0.57816948    -0.59600
H1208       H  0.39938385  0.59714346  0.58460517     0.14800
H1209       H  0.48353902  0.57486360  0.59531745     0.46700
H1210       H  0.46889577  0.64190351  0.65679939     0.42100
H1211       H  0.39989442  0.64282950  0.56208051     0.45500
H1212       H  0.38176764  0.56282100  0.65197121     0.37000
C1213       C  0.73730854  0.44510580  0.85302521    -0.27300
C1214       C  0.72142040  0.44774553  0.87314892     0.02300
C1215       C  0.70959363  0.42887786  0.89459441     0.30400
C1216       C  0.71381231  0.40791903  0.89576694    -0.19000
C1217       C  0.73004430  0.40550457  0.87595709    -0.28400
C1218       C  0.74163955  0.42420183  0.85428971     0.44500
C1219       C  0.71750323  0.47033972  0.87191766     0.05700
O1220       O  0.69421051  0.43098057  0.91481774    -0.57000
H1221       H  0.70474643  0.39373123  0.91256611     0.18600
O1222       O  0.75694445  0.42203935  0.83401003    -0.63700
H1223       H  0.74620532  0.45918869  0.83610640     0.17000
C1224       C  0.73858580  0.49567195  0.87251325     0.29300
C1225       C  0.73442771  0.51670159  0.87289204    -0.24600
C1226       C  0.70932835  0.51305639  0.87237483    -0.23900
C1227       C  0.68823026  0.48756480  0.87089948     0.40700
C1228       C  0.69245149  0.46656801  0.87084748    -0.26300
O1229       O  0.76330797  0.50004027  0.87421864    -0.58200
H1230       H  0.75103236  0.53595090  0.87391283     0.16400
O1231       O  0.66334382  0.48278619  0.87001469    -0.59600
H1232       H  0.67602921  0.44718505  0.86998986     0.14800
H1233       H  0.74488464  0.41070960  0.81901257     0.46700
H1234       H  0.77059086  0.50556852  0.85475904     0.42100
H1235       H  0.65903137  0.48166742  0.84944236     0.45500
H1236       H  0.70606220  0.44116067  0.93055120     0.37000
C1237       C  0.46606385  0.79057005  0.64369946    -0.27300
C1238       C  0.48667014  0.79869584  0.62448983     0.02300
C1239       C  0.48606246  0.78094741  0.60425537     0.30400
C1240       C  0.46539516  0.75557183  0.60376011    -0.19000
C1241       C  0.44487554  0.74736596  0.62310657    -0.28400
C1242       C  0.44536781  0.76516179  0.64320568     0.44500
C1243       C  0.50924574  0.82526608  0.62649613     0.05700
O1244       O  0.50561323  0.78820784  0.58483603    -0.57000
H1245       H  0.46531381  0.74227955  0.58801259     0.18600
O1246       O  0.42611085  0.75774152  0.66303642    -0.63700
H1247       H  0.46636343  0.80377243  0.65970746     0.17000
C1248       C  0.50636526  0.84723429  0.62639013     0.29300
C1249       C  0.52813301  0.87200669  0.62800968    -0.24600
C1250       C  0.55313894  0.87546250  0.62959662    -0.23900
C1251       C  0.55581677  0.85327941  0.63029266     0.40700
C1252       C  0.53407653  0.82863757  0.62871430    -0.26300
O1253       O  0.48239850  0.84474372  0.62422101    -0.58200
H1254       H  0.52537840  0.88855515  0.62754277     0.16400
O1255       O  0.57959603  0.85528884  0.63216726    -0.59600
H1256       H  0.53666469  0.81198314  0.62939100     0.14800
H1257       H  0.43142902  0.75084438  0.67932498     0.46700
H1258       H  0.47947058  0.84534670  0.60344837     0.42100
H1259       H  0.58265670  0.85466312  0.65284360     0.45500
H1260       H  0.50069846  0.79527481  0.56837111     0.37000
C1261       C  0.67084217  0.26760298  0.90313514    -0.27300
C1262       C  0.65225673  0.25966449  0.88140930     0.02300
C1263       C  0.65501861  0.27725283  0.85981827     0.30400
C1264       C  0.67606622  0.30237563  0.86021245    -0.19000
C1265       C  0.69475848  0.31029715  0.88182031    -0.28400
C1266       C  0.69193168  0.29274752  0.90351295     0.44500
C1267       C  0.62982540  0.23315472  0.88163329     0.05700
O1268       O  0.63738524  0.26997045  0.83806376    -0.57000
H1269       H  0.67804675  0.31561308  0.84330851     0.18600
O1270       O  0.70945410  0.30010686  0.92538615    -0.63700
H1271       H  0.66877349  0.25435901  0.92006810     0.17000
C1272       C  0.63312620  0.21149429  0.88108917     0.29300
C1273       C  0.61160044  0.18662189  0.88115121    -0.24600
C1274       C  0.58644213  0.18280980  0.88165139    -0.23900
C1275       C  0.58328801  0.20471075  0.88238700     0.40700
C1276       C  0.60485456  0.22951825  0.88225531    -0.26300
O1277       O  0.65732369  0.21443522  0.88009222    -0.58200
H1278       H  0.61469626  0.17028968  0.88052319     0.16400
O1279       O  0.55927488  0.20225654  0.88287657    -0.59600
H1280       H  0.60206459  0.24605283  0.88283200     0.14800
H1281       H  0.70328487  0.30773653  0.94001145     0.46700
H1282       H  0.66176902  0.21605077  0.85948614     0.42100
H1283       H  0.55537211  0.20264001  0.90333609     0.45500
H1284       H  0.64305311  0.26170586  0.82365737     0.37000
C1285       C  0.60223326  0.03416296  0.51855623    -0.27300
C1286       C  0.57552090  0.02151186  0.51410025     0.02300
C1287       C  0.55955019  0.99824422  0.52852770     0.30400
C1288       C  0.57029178  0.98830592  0.54774191    -0.19000
C1289       C  0.59697387  0.00119194  0.55268148    -0.28400
C1290       C  0.61301065  0.02425481  0.53771376     0.44500
C1291       C  0.56412331  0.03397869  0.99412234     0.05700
O1292       O  0.53358700  0.98457122  0.52300270    -0.57000
H1293       H  0.55771097  0.97033140  0.55860882     0.18600
O1294       O  0.63917273  0.03756092  0.54200074    -0.63700
H1295       H  0.61473425  0.05203141  0.50745575     0.17000
C1296       C  0.54627859  0.03929092  0.50314337     0.29300
C1297       C  0.53462360  0.04955430  0.98276959    -0.24600
C1298       C  0.54337074  0.05421893  0.95442113    -0.23900
C1299       C  0.56275821  0.04872824  0.94604874     0.40700
C1300       C  0.57297704  0.03873770  0.96585421    -0.26300
O1301       O  0.53879563  0.03649074  0.53119802    -0.58200
H1302       H  0.52002403  0.05397868  0.98970334     0.16400
O1303       O  0.57159346  0.05266423  0.91845005    -0.59600
H1304       H  0.58762772  0.03434362  0.95902357     0.14800
H1305       H  0.64194753  0.04896520  0.55857179     0.46700
H1306       H  0.55155299  0.05273519  0.54062334     0.42100
H1307       H  0.56018169  0.03624887  0.90836516     0.45500
H1308       H  0.52421656  0.98682193  0.03962155     0.37000
C1309       C  0.60648529  0.03731426  0.74079128    -0.27300
C1310       C  0.58022340  0.02387740  0.74782538     0.02300
C1311       C  0.56406923  0.99962801  0.73529101     0.30400
C1312       C  0.57404922  0.98949085  0.71541262    -0.19000
C1313       C  0.60026313  0.00303129  0.70800529    -0.28400
C1314       C  0.61654994  0.02713077  0.72102432     0.44500
C1315       C  0.56957764  0.03563462  0.76741752     0.05700
O1316       O  0.53844663  0.98569095  0.74231122    -0.57000
H1317       H  0.56124874  0.97088332  0.70587114     0.18600
O1318       O  0.64215572  0.04128260  0.71396861    -0.63700
H1319       H  0.61909620  0.05608546  0.75009988     0.17000
C1320       C  0.57920093  0.04305133  0.79533684     0.29300
C1321       C  0.56855768  0.05386038  0.81345878    -0.24600
C1322       C  0.54807082  0.05721778  0.80424714    -0.23900
C1323       C  0.53879014  0.05017332  0.77609143     0.40700
C1324       C  0.54949169  0.03944056  0.75800656    -0.26300
O1325       O  0.59865792  0.03936681  0.80528811    -0.58200
H1326       H  0.57595479  0.05904179  0.83502396     0.16400
O1327       O  0.51939018  0.05383454  0.76589774    -0.59600
H1328       H  0.54217051  0.03418520  0.73642163     0.14800
H1329       H  0.64292442  0.05217467  0.69760085     0.46700
H1330       H  0.58996204  0.02135551  0.81240510     0.42100
H1331       H  0.52808417  0.07197151  0.75917799     0.45500
H1332       H  0.53780920  0.97658705  0.76026729     0.37000
C1333       C  0.25190076  0.64626082  0.62859994    -0.27300
C1334       C  0.27302399  0.67007743  0.62065355     0.02300
C1335       C  0.26870564  0.69008328  0.61183419     0.30400
C1336       C  0.24369061  0.68624331  0.61134741    -0.19000
C1337       C  0.22244152  0.66250556  0.61953659    -0.28400
C1338       C  0.22677119  0.64228312  0.62788689     0.44500
C1339       C  0.29947861  0.67389331  0.62115491     0.05700
O1340       O  0.28888602  0.71362409  0.60392280    -0.57000
H1341       H  0.24098868  0.70204521  0.60461528     0.18600
O1342       O  0.20676434  0.61880558  0.63624713    -0.63700
H1343       H  0.25487536  0.63058534  0.63514748     0.17000
C1344       C  0.31014254  0.67020373  0.64636112     0.29300
C1345       C  0.33552955  0.67483426  0.64637087    -0.24600
C1346       C  0.35045862  0.68310792  0.62144408    -0.23900
C1347       C  0.33971277  0.68640124  0.59622274     0.40700
C1348       C  0.31442484  0.68181766  0.59618040    -0.26300
O1349       O  0.29637068  0.66338315  0.67135579    -0.58200
H1350       H  0.34373634  0.67240510  0.66595241     0.16400
O1351       O  0.35391905  0.69436008  0.57157215    -0.59600
H1352       H  0.30643300  0.68448671  0.57656473     0.14800
H1353       H  0.20189203  0.60783756  0.61893096     0.46700
H1354       H  0.29040985  0.64482358  0.67395060     0.42100
H1355       H  0.35125658  0.67831403  0.56230249     0.45500
H1356       H  0.29505251  0.72364528  0.62190259     0.37000
C1357       C  0.88881117  0.40796768  0.87739291    -0.27300
C1358       C  0.86763620  0.38279074  0.87618558     0.02300
C1359       C  0.87221809  0.36198471  0.87348340     0.30400
C1360       C  0.89748878  0.36649857  0.87223598    -0.19000
C1361       C  0.91879375  0.39167397  0.87385358    -0.28400
C1362       C  0.91413364  0.41253485  0.87628452     0.44500
C1363       C  0.84091876  0.37845961  0.87749160     0.05700
O1364       O  0.85212157  0.33706162  0.87242249    -0.57000
H1365       H  0.90032990  0.35006798  0.87024770     0.18600
O1366       O  0.93408847  0.43747025  0.87823440    -0.63700
H1367       H  0.88573556  0.42427470  0.87897908     0.17000
C1368       C  0.83337312  0.38965123  0.89920510     0.29300
C1369       C  0.80816534  0.38548365  0.89975610    -0.24600
C1370       C  0.79010129  0.37004760  0.87901047    -0.23900
C1371       C  0.79756449  0.35879351  0.85739484     0.40700
C1372       C  0.82277310  0.36310978  0.85667883    -0.26300
O1373       O  0.85015836  0.40371185  0.92068107    -0.58200
H1374       H  0.80258932  0.39403839  0.91667608     0.16400
O1375       O  0.78042965  0.34379465  0.83663969    -0.59600
H1376       H  0.82825192  0.35466356  0.83955979     0.14800
H1377       H  0.93693753  0.44425843  0.85847143     0.46700
H1378       H  0.85488813  0.42186358  0.91703353     0.42100
H1379       H  0.78178978  0.35605735  0.82154734     0.45500
H1380       H  0.84848650  0.33136872  0.89260970     0.37000
C1381       C  0.04104657  0.50771978  0.97765487    -0.27300
C1382       C  0.06587816  0.51705437  0.98885218     0.02300
C1383       C  0.07999424  0.50496129  0.98108762     0.30400
C1384       C  0.06928318  0.48398952  0.96230739    -0.19000
C1385       C  0.04466423  0.47502848  0.95058710    -0.28400
C1386       C  0.03044087  0.48694481  0.95862832     0.44500
C1387       C  0.07349434  0.53631152  0.50969341     0.05700
O1388       O  0.10442431  0.51373719  0.99140211    -0.57000
H1389       H  0.08057296  0.47516878  0.95629536     0.18600
O1390       O  0.00604942  0.47829753  0.94827009    -0.63700
H1391       H  0.02969472  0.51639084  0.98394689     0.17000
C1392       C  0.07474665  0.55965961  0.50192159     0.29300
C1393       C  0.08521153  0.58063040  0.52089977    -0.24600
C1394       C  0.09452965  0.57876761  0.54786756    -0.23900
C1395       C  0.09295308  0.55517406  0.55562040     0.40700
C1396       C  0.08257744  0.53434843  0.53663657    -0.26300
O1397       O  0.06998095  0.56598629  0.97597427    -0.58200
H1398       H  0.08629830  0.59849212  0.51430169     0.16400
O1399       O  0.10131234  0.55205646  0.58180747    -0.59600
H1400       H  0.08138816  0.51641526  0.54315222     0.14800
H1401       H  0.99448937  0.46424178  0.96139088     0.46700
H1402       H  0.05315196  0.56498835  0.97914587     0.42100
H1403       H  0.08616353  0.54583943  0.59456602     0.45500
H1404       H  0.11597599  0.52733186  0.97781021     0.37000
C1405       C  0.06763337  0.55857311  0.73867735    -0.27300
C1406       C  0.07907774  0.54314443  0.74133701     0.02300
C1407       C  0.10042995  0.54858692  0.72402657     0.30400
C1408       C  0.10952553  0.56860952  0.70405072    -0.19000
C1409       C  0.09799716  0.58396926  0.70115297    -0.28400
C1410       C  0.07694810  0.57887750  0.71895240     0.44500
C1411       C  0.06818523  0.52097736  0.76151450     0.05700
O1412       O  0.11264127  0.53447490  0.72648234    -0.57000
H1413       H  0.12585023  0.57220584  0.69089359     0.18600
O1414       O  0.06500306  0.59327818  0.71700811    -0.63700
H1415       H  0.05098281  0.55451397  0.75147834     0.17000
C1416       C  0.06310791  0.52390374  0.79023133     0.29300
C1417       C  0.05255974  0.50258343  0.80863154    -0.24600
C1418       C  0.04711727  0.47813960  0.79898933    -0.23900
C1419       C  0.05241158  0.47527361  0.77033205     0.40700
C1420       C  0.06252035  0.49648041  0.75182170    -0.26300
O1421       O  0.06947637  0.54773851  0.80081802    -0.58200
H1422       H  0.04906140  0.50531760  0.83070452     0.16400
O1423       O  0.04680639  0.45163268  0.75986231    -0.59600
H1424       H  0.06576084  0.49369890  0.72967800     0.14800
H1425       H  0.05046847  0.58372272  0.70357250     0.46700
H1426       H  0.05283332  0.54713433  0.80407162     0.42100
H1427       H  0.06341295  0.45176513  0.76004366     0.45500
H1428       H  0.12532594  0.54281249  0.74213455     0.37000
C1429       C  0.19181633  0.42319471  0.85775944    -0.27300
C1430       C  0.17266813  0.40669179  0.87691841     0.02300
C1431       C  0.17763946  0.39130450  0.89565640     0.30400
C1432       C  0.20141516  0.39221535  0.89461108    -0.19000
C1433       C  0.22046636  0.40847563  0.87515413    -0.28400
C1434       C  0.21565552  0.42435346  0.85694989     0.44500
C1435       C  0.14738998  0.40532479  0.87643917     0.05700
O1436       O  0.15890083  0.37437280  0.91392713    -0.57000
H1437       H  0.20479309  0.37981611  0.90865573     0.18600
O1438       O  0.23416586  0.44119496  0.83842550    -0.63700
H1439       H  0.18826686  0.43532555  0.84346525     0.17000
C1440       C  0.13782469  0.41156627  0.90069299     0.29300
C1441       C  0.11413163  0.41074013  0.89936054    -0.24600
C1442       C  0.09973571  0.40408094  0.87386247    -0.23900
C1443       C  0.10938513  0.39769149  0.84960951     0.40700
C1444       C  0.13308434  0.39849893  0.85103042    -0.26300
O1445       O  0.15172789  0.41902983  0.92561646    -0.58200
H1446       H  0.10728374  0.41584195  0.91828312     0.16400
O1447       O  0.09589822  0.39060049  0.82441191    -0.59600
H1448       H  0.14030492  0.39364708  0.83221944     0.14800
H1449       H  0.24531655  0.45675473  0.84997437     0.46700
H1450       H  0.16316791  0.43794611  0.92388037     0.42100
H1451       H  0.08503060  0.37156292  0.82540790     0.45500
H1452       H  0.16483347  0.38159159  0.93331068     0.37000
C1453       C  0.33729846  0.43999079  0.95175311    -0.27300
C1454       C  0.32822402  0.41991926  0.97179489     0.02300
C1455       C  0.30348159  0.39823724  0.96847410     0.30400
C1456       C  0.28838086  0.39662248  0.94492556    -0.19000
C1457       C  0.29789543  0.41630601  0.92441650    -0.28400
C1458       C  0.32238652  0.43819778  0.92802629     0.44500
C1459       C  0.34494090  0.42191136  0.99591654     0.05700
O1460       O  0.29421108  0.37828868  0.98768992    -0.57000
H1461       H  0.26959877  0.37961039  0.94212191     0.18600
O1462       O  0.33164328  0.45806204  0.90867789    -0.63700
H1463       H  0.35610469  0.45700350  0.95441745     0.17000
C1464       C  0.36585654  0.41544159  0.49203468     0.29300
C1465       C  0.38190693  0.42066511  0.51583926    -0.24600
C1466       C  0.37761517  0.43062348  0.54119477    -0.23900
C1467       C  0.35630159  0.43469049  0.54236169     0.40700
C1468       C  0.34012263  0.42908737  0.51864476    -0.26300
O1469       O  0.37845113  0.42639954  0.96376267    -0.58200
H1470       H  0.39808224  0.41740959  0.51415822     0.16400
O1471       O  0.35122818  0.44452336  0.56633943    -0.59600
H1472       H  0.32416198  0.43273757  0.51971579     0.14800
H1473       H  0.34393075  0.45578314  0.89658007     0.46700
H1474       H  0.35988009  0.38748461  0.46820228     0.42100
H1475       H  0.35992650  0.46344175  0.56310565     0.45500
H1476       H  0.30069118  0.36688875  0.98093178     0.37000
C1477       C  0.30780895  0.42458888  0.77224314    -0.27300
C1478       C  0.32064607  0.41040928  0.77098601     0.02300
C1479       C  0.31747082  0.39337301  0.79336092     0.30400
C1480       C  0.30275264  0.39171412  0.81718169    -0.19000
C1481       C  0.29099600  0.40690232  0.81917962    -0.28400
C1482       C  0.29292128  0.42282893  0.79603628     0.44500
C1483       C  0.33915981  0.41535627  0.74766627     0.05700
O1484       O  0.32949905  0.37900552  0.79263284    -0.57000
H1485       H  0.30117623  0.37908542  0.83460476     0.18600
O1486       O  0.28228087  0.43843992  0.79751555    -0.63700
H1487       H  0.31040997  0.43810571  0.75541920     0.17000
C1488       C  0.33203976  0.41419298  0.71883964     0.29300
C1489       C  0.35051486  0.42072985  0.69737973    -0.24600
C1490       C  0.37622833  0.42852682  0.70424776    -0.23900
C1491       C  0.38317033  0.42914214  0.73315393     0.40700
C1492       C  0.36473749  0.42278182  0.75453534    -0.26300
O1493       O  0.30697252  0.40616075  0.71147438    -0.58200
H1494       H  0.34470990  0.41985700  0.67529721     0.16400
O1495       O  0.40819971  0.43743072  0.74090822    -0.59600
H1496       H  0.37063461  0.42433984  0.77667303     0.14800
H1497       H  0.26689583  0.43018534  0.78497622     0.46700
H1498       H  0.30692365  0.42189568  0.70500553     0.42100
H1499       H  0.40900597  0.42147541  0.74407999     0.45500
H1500       H  0.31717536  0.36273176  0.78288698     0.37000
C1501       C  0.95158019  0.63864710  0.61199448    -0.27300
C1502       C  0.97279534  0.65668627  0.62795610     0.02300
C1503       C  0.97066680  0.67536222  0.64413638     0.30400
C1504       C  0.94761687  0.67604238  0.64376892    -0.19000
C1505       C  0.92655892  0.65825371  0.62737046    -0.28400
C1506       C  0.92853704  0.63920092  0.61179630     0.44500
C1507       C  0.99724088  0.65622455  0.62672687     0.05700
O1508       O  0.99144628  0.69383038  0.65906017    -0.57000
H1509       H  0.94636594  0.69083967  0.65578247     0.18600
O1510       O  0.90800945  0.62098656  0.59636382    -0.63700
H1511       H  0.95291316  0.62404302  0.59967728     0.17000
C1512       C  0.00799376  0.65194284  0.65136810     0.29300
C1513       C  0.03115373  0.65165352  0.64956859    -0.24600
C1514       C  0.04393432  0.65534209  0.62326455    -0.23900
C1515       C  0.03285689  0.65934932  0.59851300     0.40700
C1516       C  0.00966851  0.65961222  0.60040498    -0.26300
O1517       O  0.99585370  0.64770218  0.67726418    -0.58200
H1518       H  0.03897307  0.64827285  0.66889691     0.16400
O1519       O  0.04447207  0.66313950  0.57235390    -0.59600
H1520       H  0.00147734  0.66279352  0.58124474     0.14800
H1521       H  0.89748493  0.60713798  0.61024657     0.46700
H1522       H  0.98390503  0.62883112  0.67815117     0.42100
H1523       H  0.05577650  0.68209398  0.57063102     0.45500
H1524       H  0.98742448  0.68905322  0.67943859     0.37000
C1525       C  0.84643461  0.66453290  0.72617251    -0.27300
C1526       C  0.81980170  0.64742589  0.72501533     0.02300
C1527       C  0.80860575  0.63354896  0.69983964     0.30400
C1528       C  0.82398171  0.63706614  0.67604993    -0.19000
C1529       C  0.85064995  0.65456116  0.67677825    -0.28400
C1530       C  0.86186335  0.66834003  0.70218732     0.44500
C1531       C  0.80361891  0.64376186  0.75015166     0.05700
O1532       O  0.78262093  0.61644293  0.69833260    -0.57000
H1533       H  0.81499463  0.62593261  0.65695952     0.18600
O1534       O  0.88769831  0.68595504  0.70364557    -0.63700
H1535       H  0.85516473  0.67528519  0.74555125     0.17000
C1536       C  0.80610525  0.63199175  0.77491889     0.29300
C1537       C  0.78877649  0.62615523  0.79740052    -0.24600
C1538       C  0.76876833  0.63194597  0.79560604    -0.23900
C1539       C  0.76703304  0.64475864  0.77106664     0.40700
C1540       C  0.78441826  0.65053936  0.74860701    -0.26300
O1541       O  0.82435067  0.62460160  0.77655104    -0.58200
H1542       H  0.79055771  0.61625227  0.81586946     0.16400
O1543       O  0.74845060  0.65164849  0.76867077    -0.59600
H1544       H  0.78257281  0.65984433  0.72961189     0.14800
H1545       H  0.88939851  0.70232218  0.69653028     0.46700
H1546       H  0.83886129  0.63852826  0.78734445     0.42100
H1547       H  0.73449215  0.63778407  0.75712963     0.45500
H1548       H  0.78037564  0.60000454  0.70597984     0.37000
C1549       C  0.83769402  0.63956235  0.52588726    -0.27300
C1550       C  0.82608005  0.65475263  0.52242827     0.02300
C1551       C  0.83089881  0.67396238  0.54279578     0.30400
C1552       C  0.84605392  0.67687656  0.56679819    -0.19000
C1553       C  0.85675619  0.66090779  0.57091358    -0.28400
C1554       C  0.85300567  0.64257157  0.54979482     0.44500
C1555       C  0.80705517  0.64860069  0.49912831     0.05700
O1556       O  0.82017031  0.68940372  0.53992233    -0.57000
H1557       H  0.84888033  0.69121308  0.58268847     0.18600
O1558       O  0.86224351  0.62592981  0.55354951    -0.63700
H1559       H  0.83379200  0.62434644  0.51076598     0.17000
C1560       C  0.81321160  0.64442891  0.97054397     0.29300
C1561       C  0.79418664  0.63673625  0.94938765    -0.24600
C1562       C  0.76921703  0.63181964  0.95601417    -0.23900
C1563       C  0.76385014  0.63562805  0.98437303     0.40700
C1564       C  0.78196899  0.64296162  0.50594069    -0.26300
O1565       O  0.83748722  0.64957103  0.96316151    -0.58200
H1566       H  0.79902542  0.63446575  0.92770706     0.16400
O1567       O  0.73977057  0.63080596  0.99208050    -0.59600
H1568       H  0.77692053  0.64411028  0.52788765     0.14800
H1569       H  0.87721827  0.63221466  0.54051984     0.46700
H1570       H  0.83579534  0.63255415  0.95899560     0.42100
H1571       H  0.74083199  0.64786961  0.99182030     0.45500
H1572       H  0.83281401  0.70444431  0.52858622     0.37000
C1573       C  0.67440638  0.75392520  0.86396405    -0.27300
C1574       C  0.69526253  0.75296253  0.87630451     0.02300
C1575       C  0.71574977  0.77544706  0.88835793     0.30400
C1576       C  0.71501143  0.79842314  0.88826329    -0.19000
C1577       C  0.69415833  0.79931018  0.87598795    -0.28400
C1578       C  0.67374847  0.77692199  0.86378051     0.44500
C1579       C  0.69557520  0.72845725  0.87609929     0.05700
O1580       O  0.73714445  0.77541257  0.89879660    -0.57000
H1581       H  0.73102685  0.81574375  0.89718088     0.18600
O1582       O  0.65316899  0.77739195  0.85156750    -0.63700
H1583       H  0.65855841  0.73675442  0.85458725     0.17000
C1584       C  0.69749845  0.71720485  0.90166597     0.29300
C1585       C  0.69809063  0.69418382  0.90093941    -0.24600
C1586       C  0.69642771  0.68173204  0.87489240    -0.23900
C1587       C  0.69405398  0.69293444  0.84926943     0.40700
C1588       C  0.69354669  0.71602101  0.85009818    -0.26300
O1589       O  0.69847199  0.72838456  0.92754240    -0.58200
H1590       H  0.69970649  0.68601884  0.92095236     0.16400
O1591       O  0.69176496  0.68137484  0.82330615    -0.59600
H1592       H  0.69180255  0.72439824  0.83028873     0.14800
H1593       H  0.64123567  0.77461526  0.86758804     0.46700
H1594       H  0.68026863  0.72214347  0.93270277     0.42100
H1595       H  0.70952467  0.68963849  0.81554956     0.45500
H1596       H  0.73697364  0.77794820  0.91966775     0.37000
C1597       C  0.70246046  0.88712125  0.97415825    -0.27300
C1598       C  0.68398659  0.89496877  0.97421660     0.02300
C1599       C  0.66866168  0.89082619  0.94986457     0.30400
C1600       C  0.67208000  0.87924316  0.92571047    -0.19000
C1601       C  0.69071743  0.87157182  0.92535569    -0.28400
C1602       C  0.70603148  0.87563979  0.94983192     0.44500
C1603       C  0.68075187  0.90776538  0.99949446     0.05700
O1604       O  0.65023616  0.89802581  0.94952838    -0.57000
H1605       H  0.65994174  0.87603766  0.90722412     0.18600
O1606       O  0.72487262  0.86901441  0.94997496    -0.63700
H1607       H  0.71711562  0.89261794  0.49390872     0.17000
C1608       C  0.67434680  0.89653650  0.52785263     0.29300
C1609       C  0.66853476  0.90805895  0.55047853    -0.24600
C1610       C  0.67187312  0.93299708  0.54771693    -0.23900
C1611       C  0.68250818  0.94676641  0.52209994     0.40700
C1612       C  0.68786618  0.93501516  0.49942143    -0.26300
O1613       O  0.66956402  0.87171969  0.53068177    -0.58200
H1614       H  0.66067377  0.89707556  0.56991657     0.16400
O1615       O  0.68673778  0.97130255  0.51838523    -0.59600
H1616       H  0.69470428  0.94415087  0.97785460     0.14800
H1617       H  0.74044589  0.88431749  0.94232222     0.46700
H1618       H  0.68541150  0.87335891  0.53933523     0.42100
H1619       H  0.70472665  0.98282110  0.52478889     0.45500
H1620       H  0.63453560  0.88307513  0.95751741     0.37000
C1621       C  0.71279573  0.90872698  0.78938042    -0.27300
C1622       C  0.69236361  0.89511417  0.77030970     0.02300
C1623       C  0.67489075  0.86877462  0.77492610     0.30400
C1624       C  0.67717992  0.85671344  0.79940385    -0.19000
C1625       C  0.69663221  0.87081246  0.81948332    -0.28400
C1626       C  0.71506493  0.89671641  0.81383777     0.44500
C1627       C  0.68760995  0.90926174  0.74772291     0.05700
O1628       O  0.65475159  0.85510171  0.75648019    -0.57000
H1629       H  0.66291987  0.83674509  0.80349890     0.18600
O1630       O  0.73480653  0.91068599  0.83262229    -0.63700
H1631       H  0.72643038  0.92897312  0.78579133     0.17000
C1632       C  0.68072592  0.92777893  0.75507365     0.29300
C1633       C  0.67438870  0.93990566  0.73373319    -0.24600
C1634       C  0.67465803  0.93365359  0.70493966    -0.23900
C1635       C  0.68238129  0.91566354  0.69755371     0.40700
C1636       C  0.68867524  0.90349105  0.71897233    -0.26300
O1637       O  0.67849909  0.93284867  0.78317055    -0.58200
H1638       H  0.66818079  0.95340279  0.73982457     0.16400
O1639       O  0.68349616  0.90958282  0.66955028    -0.59600
H1640       H  0.69409611  0.88932425  0.71320517     0.14800
H1641       H  0.74819162  0.90619584  0.82796995     0.46700
H1642       H  0.69482908  0.94883396  0.78776356     0.42100
H1643       H  0.70094431  0.92267578  0.66294140     0.45500
H1644       H  0.64057122  0.85760877  0.76357095     0.37000
C1645       C  0.75204081  0.09898217  0.64961028    -0.27300
C1646       C  0.76710420  0.10700173  0.62478803     0.02300
C1647       C  0.75851902  0.09129660  0.60030846     0.30400
C1648       C  0.73562167  0.06745446  0.60124643    -0.19000
C1649       C  0.72084614  0.05892357  0.62638647    -0.28400
C1650       C  0.72897395  0.07533932  0.65048416     0.44500
C1651       C  0.79267288  0.13075024  0.62544706     0.05700
O1652       O  0.77323781  0.09833291  0.57598879    -0.57000
H1653       H  0.72982045  0.05532792  0.58240813     0.18600
O1654       O  0.71470938  0.06845969  0.67512011    -0.63700
H1655       H  0.75836021  0.11104279  0.66851099     0.17000
C1656       C  0.79883116  0.15151626  0.60687759     0.29300
C1657       C  0.82359251  0.17318878  0.60728954    -0.24600
C1658       C  0.84256803  0.17461439  0.62615204    -0.23900
C1659       C  0.83617419  0.15384517  0.64497166     0.40700
C1660       C  0.81136082  0.13230509  0.64466406    -0.26300
O1661       O  0.78076665  0.15086464  0.58836122    -0.58200
H1662       H  0.82788499  0.18906334  0.59297736     0.16400
O1663       O  0.85415574  0.15403460  0.66326547    -0.59600
H1664       H  0.80685828  0.11639686  0.65901962     0.14800
H1665       H  0.70217109  0.07452420  0.67255489     0.46700
H1666       H  0.77203856  0.15860329  0.59902439     0.42100
H1667       H  0.86327420  0.14700916  0.65202702     0.45500
H1668       H  0.76417194  0.10367856  0.56226412     0.37000
C1669       C  0.97276576  0.32105259  0.74268921    -0.27300
C1670       C  0.95479266  0.29547390  0.74981443     0.02300
C1671       C  0.94895275  0.28857057  0.77868301     0.30400
C1672       C  0.96044677  0.30742557  0.79992986    -0.19000
C1673       C  0.97790487  0.33322688  0.79279174    -0.28400
C1674       C  0.98440418  0.33986060  0.76387783     0.44500
C1675       C  0.94173398  0.27660688  0.72662647     0.05700
O1676       O  0.93270184  0.26333829  0.78626287    -0.57000
H1677       H  0.95562969  0.30182017  0.82206898     0.18600
O1678       O  0.00096177  0.36488927  0.75591841    -0.63700
H1679       H  0.97731412  0.32659725  0.72049201     0.17000
C1680       C  0.91484940  0.26445960  0.72307038     0.29300
C1681       C  0.90328694  0.24935928  0.69884562    -0.24600
C1682       C  0.91814840  0.24589456  0.67802283    -0.23900
C1683       C  0.94495843  0.25709816  0.68241177     0.40700
C1684       C  0.95654276  0.27252744  0.70638952    -0.26300
O1685       O  0.90003720  0.26896329  0.74193782    -0.58200
H1686       H  0.88275857  0.24132437  0.69576090     0.16400
O1687       O  0.96012262  0.25353331  0.66315014    -0.59600
H1688       H  0.97725368  0.28171811  0.70898946     0.14800
H1689       H  0.01791177  0.36598705  0.75340581     0.46700
H1690       H  0.88910851  0.25226872  0.75174462     0.42100
H1691       H  0.95934537  0.23727589  0.66900923     0.45500
H1692       H  0.91760662  0.26300564  0.79534719     0.37000
C1693       C  0.91577987  0.26613318  0.52850522    -0.27300
C1694       C  0.94150219  0.27338017  0.52280897     0.02300
C1695       C  0.95460973  0.26531037  0.54132028     0.30400
C1696       C  0.94221364  0.25089655  0.56567532    -0.19000
C1697       C  0.91665980  0.24417431  0.57173965    -0.28400
C1698       C  0.90331005  0.25157802  0.55272874     0.44500
C1699       C  0.95498177  0.29131925  0.49900636     0.05700
O1700       O  0.97971283  0.27198616  0.53615548    -0.57000
H1701       H  0.95269157  0.24531781  0.58015722     0.18600
O1702       O  0.87881094  0.24645582  0.55884861    -0.63700
H1703       H  0.90567497  0.27272490  0.51477019     0.17000
C1704       C  0.95051905  0.28781584  0.96831104     0.29300
C1705       C  0.96168780  0.30636670  0.94668745    -0.24600
C1706       C  0.97943634  0.33222058  0.95331897    -0.23900
C1707       C  0.98668981  0.33910047  0.98208280     0.40700
C1708       C  0.97597613  0.31579993  0.50499077    -0.26300
O1709       O  0.93358650  0.26262883  0.96120111    -0.58200
H1710       H  0.95622373  0.30054483  0.92470213     0.16400
O1711       O  0.00395288  0.36407157  0.98960309    -0.59600
H1712       H  0.98309865  0.32084253  0.52667333     0.14800
H1713       H  0.86735381  0.23176119  0.54639075     0.46700
H1714       H  0.91742375  0.26221438  0.95566752     0.42100
H1715       H  0.99340974  0.37242172  0.99262124     0.45500
H1716       H  0.97869291  0.25835197  0.52331662     0.37000
C1717       C  0.38326015  0.96607341  0.84782510    -0.27300
C1718       C  0.36941973  0.95615923  0.87326468     0.02300
C1719       C  0.37959254  0.96981438  0.89888790     0.30400
C1720       C  0.40339972  0.99268080  0.89894232    -0.19000
C1721       C  0.41750822  0.00267070  0.87356620    -0.28400
C1722       C  0.40695246  0.98919617  0.84772982     0.44500
C1723       C  0.34456675  0.93142925  0.87309459     0.05700
O1724       O  0.36633640  0.96101120  0.92406101    -0.57000
H1725       H  0.41072854  0.00267868  0.91903799     0.18600
O1726       O  0.41983791  0.99797544  0.82234371    -0.63700
H1727       H  0.37582073  0.95568004  0.82795748     0.17000
C1728       C  0.32405830  0.92779945  0.85529406     0.29300
C1729       C  0.30057729  0.90449150  0.85612866    -0.24600
C1730       C  0.29714811  0.88442193  0.87444786    -0.23900
C1731       C  0.31781790  0.88798923  0.89203131     0.40700
C1732       C  0.34126701  0.91129566  0.89117256    -0.26300
O1733       O  0.32644405  0.94731618  0.83789639    -0.58200
H1734       H  0.28488455  0.90218996  0.84259797     0.16400
O1735       O  0.31570600  0.86836821  0.90907293    -0.59600
H1736       H  0.35704395  0.91359144  0.90455668     0.14800
H1737       H  0.41228076  0.00763266  0.81322966     0.46700
H1738       H  0.32875873  0.94238938  0.81838527     0.42100
H1739       H  0.31482419  0.87369005  0.92890746     0.45500
H1740       H  0.35439404  0.96798269  0.92459255     0.37000
C1741       C  0.19605680  0.76783717  0.52269120    -0.27300
C1742       C  0.19195687  0.76014945  0.00110421     0.02300
C1743       C  0.16843427  0.73439199  0.48930415     0.30400
C1744       C  0.15698179  0.71721262  0.51203419    -0.19000
C1745       C  0.16534570  0.72481484  0.54024697    -0.28400
C1746       C  0.18479837  0.75057813  0.54549192     0.44500
C1747       C  0.20333652  0.77857058  0.97685896     0.05700
O1748       O  0.22294430  0.74572765  0.99526495    -0.57000
H1749       H  0.14209252  0.69759882  0.50740075     0.18600
O1750       O  0.19279816  0.75917567  0.57279805    -0.63700
H1751       H  0.21134523  0.78735652  0.52698252     0.17000
C1752       C  0.18782278  0.77874949  0.95430887     0.29300
C1753       C  0.19916910  0.79452239  0.93046444    -0.24600
C1754       C  0.22612339  0.80974193  0.92794663    -0.23900
C1755       C  0.24159828  0.80990612  0.95086312     0.40700
C1756       C  0.23014697  0.79491100  0.97519271    -0.26300
O1757       O  0.16159319  0.76280153  0.95474177    -0.58200
H1758       H  0.18676235  0.79422083  0.91344752     0.16400
O1759       O  0.26797862  0.82359696  0.94929191    -0.59600
H1760       H  0.24242176  0.79536187  0.99245103     0.14800
H1761       H  0.20911306  0.75892873  0.57526702     0.46700
H1762       H  0.15860416  0.74603266  0.94722571     0.42100
H1763       H  0.27286872  0.81200869  0.93942794     0.45500
H1764       H  0.21557323  0.73435230  0.97837512     0.37000
C1765       C  0.18958964  0.78497390  0.79035490    -0.27300
C1766       C  0.20452018  0.77926159  0.77193279     0.02300
C1767       C  0.23101436  0.78988387  0.77757158     0.30400
C1768       C  0.24197761  0.80511914  0.80191250    -0.19000
C1769       C  0.22677576  0.80978536  0.82108940    -0.28400
C1770       C  0.20049382  0.80002585  0.81483754     0.44500
C1771       C  0.19200980  0.76104612  0.74787705     0.05700
O1772       O  0.24615246  0.78470461  0.75998964    -0.57000
H1773       H  0.26220243  0.81243789  0.80643322     0.18600
O1774       O  0.18549272  0.80555124  0.83226870    -0.63700
H1775       H  0.16930182  0.77738965  0.78596002     0.17000
C1776       C  0.17209173  0.73564557  0.75306027     0.29300
C1777       C  0.16095475  0.71830643  0.73036035    -0.24600
C1778       C  0.16939474  0.72579615  0.70214590    -0.23900
C1779       C  0.18918601  0.75139927  0.69695343     0.40700
C1780       C  0.20034987  0.76873829  0.71973515    -0.26300
O1781       O  0.16437263  0.72719153  0.78045637    -0.58200
H1782       H  0.14607913  0.69869470  0.73501469     0.16400
O1783       O  0.19781725  0.75972414  0.66975869    -0.59600
H1784       H  0.21556944  0.78827983  0.71542781     0.14800
H1785       H  0.17425113  0.78936409  0.84276646     0.46700
H1786       H  0.14803455  0.72737439  0.78304326     0.42100
H1787       H  0.18666134  0.76628933  0.66234418     0.45500
H1788       H  0.24481531  0.76862757  0.76760630     0.37000
C1789       C  0.46279106  0.30076804  0.60959213    -0.27300
C1790       C  0.44688704  0.30462940  0.62844080     0.02300
C1791       C  0.43009504  0.28447492  0.64656529     0.30400
C1792       C  0.42911321  0.26063803  0.64541171    -0.19000
C1793       C  0.44494742  0.25661958  0.62646116    -0.28400
C1794       C  0.46213062  0.27708196  0.60871409     0.44500
C1795       C  0.44715620  0.32941058  0.62810478     0.05700
O1796       O  0.41382158  0.28759053  0.66457315    -0.57000
H1797       H  0.41568828  0.24512516  0.65910344     0.18600
O1798       O  0.47858817  0.27426610  0.59070653    -0.63700
H1799       H  0.47586076  0.31625409  0.59563555     0.17000
C1800       C  0.45733460  0.34680715  0.65106115     0.29300
C1801       C  0.45694170  0.37000199  0.65028305    -0.24600
C1802       C  0.44672538  0.37632641  0.62656261    -0.23900
C1803       C  0.43651975  0.35870745  0.60361568     0.40700
C1804       C  0.43696471  0.33558973  0.60446872    -0.26300
O1805       O  0.46783581  0.34136638  0.67422118    -0.58200
H1806       H  0.46499683  0.38322617  0.66810481     0.16400
O1807       O  0.42569356  0.36364363  0.58039238    -0.59600
H1808       H  0.42898250  0.32222059  0.58675074     0.14800
H1809       H  0.49392678  0.27835529  0.60250193     0.46700
H1810       H  0.48626186  0.34845574  0.66937471     0.42100
H1811       H  0.40733943  0.35669037  0.58552318     0.45500
H1812       H  0.42261039  0.29196269  0.68337708     0.37000
C1813       C  0.43431468  0.14825633  0.70997112    -0.27300
C1814       C  0.45629929  0.16286783  0.72685464     0.02300
C1815       C  0.47352743  0.18874805  0.71944607     0.30400
C1816       C  0.46872818  0.19947094  0.69526483    -0.19000
C1817       C  0.44703983  0.18464814  0.67807805    -0.28400
C1818       C  0.42962314  0.15894822  0.68576196     0.44500
C1819       C  0.46175878  0.15029497  0.75097614     0.05700
O1820       O  0.49602172  0.20302361  0.73441481    -0.57000
H1821       H  0.48254010  0.21912948  0.68928135     0.18600
O1822       O  0.40815776  0.14401954  0.66950542    -0.63700
H1823       H  0.42087387  0.12834968  0.71542616     0.17000
C1824       C  0.46677289  0.16088324  0.77864738     0.29300
C1825       C  0.47288039  0.14903338  0.80062452    -0.24600
C1826       C  0.47364378  0.12622670  0.79571529    -0.23900
C1827       C  0.46770226  0.11518514  0.76812484     0.40700
C1828       C  0.46186228  0.12723360  0.74613541    -0.26300
O1829       O  0.46560152  0.18271038  0.78453423    -0.58200
H1830       H  0.47702608  0.15781216  0.82161462     0.16400
O1831       O  0.46759109  0.09268967  0.76224486    -0.59600
H1832       H  0.45782748  0.11872241  0.72499860     0.14800
H1833       H  0.39451807  0.14685191  0.67757997     0.46700
H1834       H  0.44708001  0.17667385  0.78748692     0.42100
H1835       H  0.48490659  0.09812569  0.75429799     0.45500
H1836       H  0.49441869  0.21705497  0.74364699     0.37000
C1837       C  0.46412786  0.18232258  0.52952715    -0.27300
C1838       C  0.44447985  0.15715347  0.52295748     0.02300
C1839       C  0.42277232  0.14498277  0.54100398     0.30400
C1840       C  0.42144478  0.15762274  0.56558005    -0.19000
C1841       C  0.44130557  0.18261609  0.57219253    -0.28400
C1842       C  0.46262833  0.19504058  0.55382931     0.44500
C1843       C  0.44812659  0.14337565  0.49859241     0.05700
O1844       O  0.40295334  0.12063848  0.53504949    -0.57000
H1845       H  0.40499122  0.14783156  0.57967114     0.18600
O1846       O  0.48264351  0.21920635  0.56011798    -0.63700
H1847       H  0.48124702  0.19183221  0.51636089     0.17000
C1848       C  0.45971545  0.15686158  0.97441175     0.29300
C1849       C  0.46715785  0.14574044  0.95294899    -0.24600
C1850       C  0.46533778  0.12157117  0.95692278    -0.23900
C1851       C  0.45468295  0.10811188  0.98269853     0.40700
C1852       C  0.44580259  0.11909535  0.50294610    -0.26300
O1853       O  0.46223333  0.18064880  0.96981641    -0.58200
H1854       H  0.47490300  0.15643824  0.93332233     0.16400
O1855       O  0.45165348  0.08413259  0.98736685    -0.59600
H1856       H  0.43934821  0.10947732  0.52336996     0.14800
H1857       H  0.49412715  0.21632061  0.57298769     0.46700
H1858       H  0.44471641  0.17713010  0.96467860     0.42100
H1859       H  0.46718409  0.08726317  0.99822012     0.45500
H1860       H  0.39113225  0.12322266  0.52244597     0.37000
loop_ 
_geom_bond_atom_site_label_1 
_geom_bond_atom_site_label_2 
_geom_bond_distance 
_geom_bond_site_symmetry_2 
_ccdc_geom_bond_type 
C1            C2   1.405       .  A
C1            C6   1.406       .  A
C1          C863   1.483       .  S
C2            C3   1.401       .  A
C2            H7   1.084       .  S
C3            C4   1.397       .  A
C3          C911   1.472       .  S
C4            C5   1.401       .  A
C4            H8   1.084       .  S
C5            C6   1.404       .  A
C5          C887   1.478       .  S
C6            H9   1.084       .  S
C10          C11   1.407       .  A
C10          C15   1.406       .  A
C10         C800   1.481       .  S
C11          C12   1.405       .  A
C11          H16   1.084       .  S
C12          C13   1.402       .  A
C12         C839   1.481       .  S
C13          C14   1.399       .  A
C13          H17   1.084       .  S
C14          C15   1.399       .  A
C14         C824   1.475       .  S
C15          H18   1.084       .  S
C19          C20   1.406       .  A
C19          C24   1.405       .  A
C19         C728   1.483       .  S
C20          C21   1.405       .  A
C20          H25   1.083       .  S
C21          C22   1.402       .  A
C21         C767   1.485       .  S
C22          C23   1.402       .  A
C22          H26   1.084       .  S
C23          C24   1.401       .  A
C23         C752   1.479       .  S
C24          H27   1.083       .  S
C28          C29   1.404       .  A
C28          C33   1.404       .  A
C28         C647   1.477       .  S
C29          C30   1.404       .  A
C29          H34   1.084       .  S
C30          C31   1.403       .  A
C30         C671   1.482       .  S
C31          C32   1.401       .  A
C31          H35   1.084       .  S
C32          C33   1.400       .  A
C32         C695   1.475       .  S
C33          H36   1.084       .  S
C37          C38   1.405       .  A
C37          C42   1.405       .  A
C37         C575   1.481       .  S
C38          C39   1.402       .  A
C38          H43   1.083       .  S
C39          C40   1.401       .  A
C39         C623   1.483       .  S
C40          C41   1.404       .  A
C40          H44   1.084       .  S
C41          C42   1.406       .  A
C41         C599   1.486       .  S
C42          H45   1.083       .  S
C46          C47   1.408       .  A
C46          C51   1.404       .  A
C46         C503   1.481       .  S
C47          C48   1.405       .  A
C47          H52   1.084       .  S
C48          C49   1.400       .  A
C48         C527   1.482       .  S
C49          C50   1.401       .  A
C49          H53   1.084       .  S
C50          C51   1.400       .  A
C50         C551   1.478       .  S
C51          H54   1.084       .  S
O55          C71   1.274       .  A
O55         Zn61   2.013       .  S
C56         C776   1.483       .  S
C56          O72   1.274       .  A
C56          O69   1.275   1_655  A
O57          C70   1.274       .  A
O57         Cd64   2.071   1_655  S
O58          C76   1.276       .  A
O58         Cd67   2.078       .  S
O59          C73   1.276       .  A
O59         Cd63   2.078       .  S
O60          C71   1.275   1_455  A
O60         Cd63   2.066       .  S
Zn61         O72   2.012       .  S
Zn61         O74   2.022       .  S
Zn61         O66   1.945   1_655  S
O62          C73   1.276       .  A
O62         Cd67   2.074       .  S
Cd63         O65   2.082       .  S
Cd63         O66   1.999       .  S
Cd64         O68   2.068       .  S
Cd64         O77   2.065       .  S
Cd64         O66   1.995       .  S
O65          C75   1.276       .  A
O66         Cd67   1.999       .  S
Cd67         O69   2.068       .  S
O68          C75   1.275       .  A
C70         C431   1.491       .  S
C70          O74   1.275       .  A
C71         C743   1.487       .  S
C73         C512   1.492       .  S
C75         C488   1.483       .  S
C76         C455   1.481       .  S
C76          O77   1.274       .  A
O78          C94   1.271       .  A
O78         Zn84   2.003       .  S
C79         C848   1.479       .  S
C79          O95   1.273       .  A
C79          O92   1.276       .  A
O80          C93   1.274       .  A
O80         Cd87   2.076       .  S
O81          C99   1.276       .  A
O81         Cd90   2.083       .  S
O82          C96   1.276       .  A
O82         Cd86   2.075       .  S
O83          C94   1.275       .  A
O83         Cd86   2.081       .  S
Zn84         O95   2.006       .  S
Zn84         O97   2.009       .  S
Zn84         O89   1.937       .  S
O85          C96   1.276       .  A
O85         Cd90   2.069       .  S
Cd86         O88   2.086       .  S
Cd86         O89   2.008       .  S
Cd87         O91   2.055       .  S
Cd87        O100   2.066       .  S
Cd87         O89   1.995       .  S
O88          C98   1.278       .  A
O89         Cd90   2.001       .  S
Cd90         O92   2.074       .  S
O91          C98   1.274       .  A
C93         C407   1.489       .  S
C93          O97   1.273       .  A
C94         C815   1.469       .  S
C96         C584   1.488       .  S
C98         C464   1.485       .  S
C99         C479   1.488       .  S
C99         O100   1.275       .  A
O101        C117   1.274       .  A
O101       Zn107   2.009       .  S
C102        C920   1.490       .  S
C102        O118   1.274       .  A
C102        O115   1.276       .  A
O103        C116   1.276       .  A
O103       Cd110   2.078       .  S
O104        C122   1.278       .  A
O104       Cd113   2.086       .  S
O105        C119   1.274       .  A
O105       Cd109   2.065       .  S
O106        C117   1.273       .  A
O106       Cd109   2.059       .  S
Zn107       O118   2.014       .  S
Zn107       O120   2.013       .  S
Zn107       O112   1.939       .  S
O108        C119   1.277       .  A
O108       Cd113   2.075       .  S
Cd109       O111   2.072       .  S
Cd109       O112   1.997       .  S
Cd110       O114   2.074       .  S
Cd110       O123   2.060       .  S
Cd110       O112   1.999       .  S
O111        C121   1.275       .  A
O112       Cd113   2.003       .  S
Cd113       O115   2.079       .  S
O114        C121   1.275       .  A
C116        C344   1.489       .  S
C116        O120   1.274       .  A
C117        C896   1.483       .  S
C119        C791   1.489       .  S
C121        C392   1.484       .  S
C122        C368   1.480       .  S
C122        O123   1.274       .  A
O124        C140   1.273       .  A
O124       Zn130   2.012       .  S
C125        C704   1.483       .  S
C125        O141   1.272       .  A
C125        O138   1.277       .  A
O126        C139   1.276       .  A
O126       Cd133   2.081       .  S
O127        C145   1.276       .  A
O127       Cd136   2.077       .  S
O128        C142   1.274       .  A
O128       Cd132   2.063   1_545  S
O129        C140   1.275       .  A
O129       Cd132   2.071       .  S
Zn130       O141   1.997       .  S
Zn130       O143   2.007       .  S
Zn130       O135   1.938       .  S
O131        C142   1.276       .  A
O131       Cd136   2.078   1_545  S
Cd132       O134   2.060       .  S
Cd132       O135   1.997       .  S
Cd133       O137   2.080       .  S
Cd133       O146   2.080       .  S
Cd133       O135   2.006       .  S
O134        C144   1.274       .  A
O135       Cd136   2.001       .  S
Cd136       O138   2.081       .  S
O137        C144   1.277       .  A
C139        C320   1.489       .  S
C139        O143   1.273       .  A
C140        C680   1.488       .  S
C142        C719   1.487       .  S
C144        C359   1.480   1_565  S
C145        C383   1.485   1_565  S
C145        O146   1.276       .  A
C147        C148   1.405       .  A
C147        C152   1.404       .  A
C147        C287   1.485       .  S
C148        C149   1.404       .  A
C148        H153   1.084       .  S
C149        C150   1.404       .  A
C149        C440   1.483       .  S
C150        C151   1.403       .  A
C150        H154   1.084       .  S
C151        C152   1.404       .  A
C151        C335   1.482       .  S
C152        H155   1.084       .  S
C156        C157   1.403       .  A
C156        C161   1.405       .  A
C156        C272   1.483       .  S
C157        C158   1.405       .  A
C157        H162   1.084       .  S
C158        C159   1.405       .  A
C158        C311   1.485       .  S
C159        C160   1.403       .  A
C159        H163   1.084       .  S
C160        C161   1.402       .  A
C160        C416   1.477       .  S
C161        H164   1.084       .  S
O165        C181   1.271       .  A
O165       Zn171   1.995       .  S
C166        C560   1.476       .  S
C166        O182   1.272       .  A
C166        O179   1.274       .  A
O167        C180   1.273       .  A
O167       Cd174   2.070       .  S
O168        C186   1.276       .  A
O168       Cd177   2.074       .  S
O169        C183   1.275       .  A
O169       Cd173   2.071       .  S
O170        C181   1.274       .  A
O170       Cd173   2.062       .  S
Zn171       O182   1.996       .  S
Zn171       O184   2.014       .  S
Zn171       O176   1.934       .  S
O172        C183   1.276       .  A
O172       Cd177   2.079       .  S
Cd173       O175   2.065       .  S
Cd173       O176   1.996       .  S
Cd174       O178   2.053       .  S
Cd174       O187   2.059       .  S
Cd174       O176   1.993       .  S
O175        C185   1.274       .  A
O176       Cd177   1.996       .  S
Cd177       O179   2.064       .  S
O178        C185   1.274       .  A
C180        C263   1.487       .  S
C180        O184   1.274       .  A
C181        C536   1.474       .  S
C183        C872   1.490       .  S
C185        C239   1.482       .  S
C186        C215   1.482       .  S
C186        O187   1.274       .  A
O188        C204   1.274       .  A
O188       Zn194   2.006       .  S
C189        C632   1.486       .  S
C189        O205   1.275       .  A
C189        O202   1.275       .  A
O190        C203   1.274       .  A
O190       Cd197   2.070       .  S
O191        C209   1.274       .  A
O191       Cd200   2.061       .  S
O192        C206   1.274       .  A
O192       Cd196   2.065       .  S
O193        C204   1.274       .  A
O193       Cd196   2.067       .  S
Zn194       O205   2.023       .  S
Zn194       O207   2.021       .  S
Zn194       O199   1.936       .  S
O195        C206   1.274       .  A
O195       Cd200   2.065       .  S
Cd196       O198   2.067       .  S
Cd196       O199   1.996       .  S
Cd197       O201   2.069       .  S
Cd197       O210   2.065       .  S
Cd197       O199   2.000       .  S
O198        C208   1.274       .  A
O199       Cd200   1.994       .  S
Cd200       O202   2.069       .  S
O201        C208   1.275       .  A
C203        C296   1.490       .  S
C203        O207   1.275       .  A
C204        C608   1.484       .  S
C206        C656   1.487       .  S
C208        C224   1.482       .  S
C209        C248   1.471       .  S
C209        O210   1.274       .  A
C211        C212   1.403       .  A
C211        C216   1.398       .  A
C211        H221   1.084       .  S
C212        C213   1.409       .  A
C212        C217   1.484       .  S
C213        C214   1.401       .  A
C213        O218   1.373       .  S
C214        C215   1.405       .  A
C214        H219   1.084       .  S
C215        C216   1.413       .  A
C216        O220   1.372       .  S
C217        C222   1.409       .  A
C217        C226   1.404       .  A
O218        H234   0.993       .  S
O220        H231   0.992       .  S
C222        C223   1.399       .  A
C222        O227   1.371       .  S
C223        C224   1.405       .  A
C223        H228   1.083       .  S
C224        C225   1.412       .  A
C225        C226   1.399       .  A
C225        O229   1.372       .  S
C226        H230   1.084       .  S
O227        H232   0.992       .  S
O229        H233   0.991       .  S
C235        C236   1.403   1_556  A
C235        C240   1.398   1_556  A
C235       H1175   1.083       .  S
C236        C237   1.407       .  A
C236       C1171   1.480   1_554  S
C237        C238   1.395       .  A
C237        O242   1.372       .  S
C238        C239   1.407       .  A
C238        H243   1.083       .  S
C239        C240   1.413       .  A
C240        O244   1.372       .  S
C241        C246   1.408       .  A
C241        C250   1.403       .  A
C241       C1166   1.478       .  S
O242        H258   0.990       .  S
O244        H255   0.991       .  S
H245       C1165   1.083       .  S
C246        C247   1.398       .  A
C246        O251   1.372       .  S
C247        C248   1.402       .  A
C247        H252   1.084       .  S
C248        C249   1.409       .  A
C249        C250   1.397       .  A
C249        O253   1.372       .  S
C250       H1184   1.084       .  S
O251        H256   0.992       .  S
O253        H257   0.992       .  S
H254       C1180   1.084       .  S
C259        C260   1.402       .  A
C259        C264   1.402       .  A
C259        H269   1.084       .  S
C260        C261   1.405       .  A
C260        C265   1.478       .  S
C261        C262   1.397       .  A
C261        O266   1.372       .  S
C262        C263   1.407       .  A
C262        H267   1.083       .  S
C263        C264   1.415       .  A
C264        O268   1.372       .  S
C265        C270   1.406       .  A
C265        C274   1.403       .  A
O266        H282   0.990       .  S
O268        H279   0.991       .  S
C270        C271   1.401       .  A
C270        O275   1.371       .  S
C271        C272   1.406       .  A
C271        H276   1.084       .  S
C272        C273   1.410       .  A
C273        C274   1.399       .  A
C273        O277   1.372       .  S
C274        H278   1.084       .  S
O275        H280   0.992       .  S
O277        H281   0.993       .  S
C283        C284   1.404       .  A
C283        C288   1.400       .  A
C283        H293   1.083       .  S
C284        C285   1.409       .  A
C284        C289   1.484       .  S
C285        C286   1.400       .  A
C285        O290   1.372       .  S
C286        C287   1.405       .  A
C286        H291   1.084       .  S
C287        C288   1.411       .  A
C288        O292   1.372       .  S
C289        C294   1.407       .  A
C289        C298   1.403       .  A
O290        H306   0.992       .  S
O292        H303   0.992       .  S
C294        C295   1.400       .  A
C294        O299   1.372       .  S
C295        C296   1.408       .  A
C295        H300   1.083       .  S
C296        C297   1.415       .  A
C297        C298   1.402       .  A
C297        O301   1.372       .  S
C298        H302   1.084       .  S
O299        H304   0.993       .  S
O301        H305   0.991       .  S
C307        C308   1.404       .  A
C307        C312   1.401       .  A
C307        H317   1.083       .  S
C308        C309   1.409       .  A
C308        C313   1.484       .  S
C309        C310   1.398       .  A
C309        O314   1.372       .  S
C310        C311   1.405       .  A
C310        H315   1.084       .  S
C311        C312   1.411       .  A
C312        O316   1.371       .  S
C313        C318   1.408       .  A
C313        C322   1.402       .  A
O314        H330   0.992       .  S
O316        H327   0.992       .  S
C318        C319   1.401       .  A
C318        O323   1.371       .  S
C319        C320   1.408       .  A
C319        H324   1.083       .  S
C320        C321   1.416       .  A
C321        C322   1.398       .  A
C321        O325   1.372       .  S
C322        H326   1.084       .  S
O323        H328   0.992       .  S
O325        H329   0.990       .  S
C331        C332   1.403       .  A
C331        C336   1.401       .  A
C331        H341   1.084       .  S
C332        C333   1.408       .  A
C332        C337   1.481       .  S
C333        C334   1.399       .  A
C333        O338   1.372       .  S
C334        C335   1.404       .  A
C334        H339   1.084       .  S
C335        C336   1.410       .  A
C336        O340   1.371       .  S
C337        C342   1.407       .  A
C337        C346   1.401       .  A
O338        H354   0.992       .  S
O340        H351   0.992       .  S
C342        C343   1.401       .  A
C342        O347   1.372       .  S
C343        C344   1.408       .  A
C343        H348   1.083       .  S
C344        C345   1.416       .  A
C345        C346   1.399       .  A
C345        O349   1.372       .  S
C346        H350   1.084       .  S
O347        H352   0.993       .  S
O349        H353   0.989       .  S
C355        C356   1.402       .  A
C355        C360   1.400       .  A
C355        H365   1.084       .  S
C356        C357   1.408   1_545  A
C356       C1291   1.481   1_554  S
C357        C358   1.401       .  A
C357        O362   1.372       .  S
C358        C359   1.404   1_565  A
C358        H363   1.084       .  S
C359        C360   1.413       .  A
C360        O364   1.372       .  S
C361        C370   1.401       .  A
C361       C1296   1.409       .  A
C361       C1286   1.479       .  S
O362       H1308   0.991       .  S
O364        H375   0.991       .  S
C366       C1291   1.409   1_554  A
C366       C1297   1.400   1_554  A
C366        O371   1.371       .  S
C367        C368   1.404       .  A
C367       C1296   1.401       .  A
C367        H372   1.083       .  S
C368        C369   1.413       .  A
C369        C370   1.398       .  A
C369        O373   1.372       .  S
C370        H374   1.084       .  S
O371        H376   0.991       .  S
O373        H377   0.992       .  S
H378       O1292   0.992       .  S
C379        C380   1.402       .  A
C379        C384   1.401       .  A
C379        H389   1.084       .  S
C380        C381   1.409   1_545  A
C380        C385   1.484       .  S
C381        C382   1.402       .  A
C381        O386   1.372       .  S
C382        C383   1.406   1_565  A
C382        H387   1.083       .  S
C383        C384   1.412       .  A
C384        O388   1.372       .  S
C385        C390   1.408       .  A
C385        C394   1.404       .  A
O386        H402   0.992       .  S
O388        H399   0.992       .  S
C390        C391   1.401       .  A
C390        O395   1.372       .  S
C391        C392   1.406       .  A
C391        H396   1.084       .  S
C392        C393   1.412       .  A
C393        C394   1.401       .  A
C393        O397   1.372       .  S
C394        H398   1.084       .  S
O395        H400   0.992       .  S
O397        H401   0.991       .  S
C403        C404   1.404       .  A
C403        C408   1.403       .  A
C403        H413   1.083       .  S
C404        C405   1.407       .  A
C404        C409   1.484       .  S
C405        C406   1.397       .  A
C405        O410   1.372       .  S
C406        C407   1.408       .  A
C406        H411   1.083       .  S
C407        C408   1.414       .  A
C408        O412   1.371       .  S
C409        C414   1.409       .  A
C409        C418   1.405       .  A
O410        H426   0.992       .  S
O412        H423   0.991       .  S
C414        C415   1.403       .  A
C414        O419   1.372       .  S
C415        C416   1.403       .  A
C415        H420   1.084       .  S
C416        C417   1.406       .  A
C417        C418   1.399       .  A
C417        O421   1.371       .  S
C418        H422   1.084       .  S
O419        H424   0.990       .  S
O421        H425   0.992       .  S
C427        C428   1.403       .  A
C427        C432   1.401       .  A
C427        H437   1.083       .  S
C428        C429   1.408       .  A
C428        C433   1.485       .  S
C429        C430   1.400       .  A
C429        O434   1.372       .  S
C430        C431   1.408       .  A
C430        H435   1.083       .  S
C431        C432   1.415       .  A
C432        O436   1.371       .  S
C433        C438   1.409       .  A
C433        C442   1.404       .  A
O434        H450   0.991       .  S
O436        H447   0.991       .  S
C438        C439   1.401       .  A
C438        O443   1.372       .  S
C439        C440   1.404       .  A
C439        H444   1.084       .  S
C440        C441   1.410       .  A
C441        C442   1.400       .  A
C441        O445   1.372       .  S
C442        H446   1.084       .  S
O443        H448   0.991       .  S
O445        H449   0.993       .  S
C451        C452   1.404       .  A
C451        C456   1.400       .  A
C451        H461   1.083       .  S
C452        C453   1.410       .  A
C452       C1387   1.487       .  S
C453        C454   1.400       .  A
C453        O458   1.372       .  S
C454        C455   1.404       .  A
C454        H459   1.084       .  S
C455        C456   1.412       .  A
C456        O460   1.372       .  S
C457        C462   1.409       .  A
C457        C466   1.401       .  A
C457       C1382   1.481   1_554  S
O458        H474   0.992       .  S
O460        H471   0.991   1_455  S
C462        C463   1.402       .  A
C462       O1397   1.372   1_554  S
C463        C464   1.406       .  A
C463        H468   1.083       .  S
C464        C465   1.415       .  A
C465        C466   1.397       .  A
C465        O469   1.372       .  S
C466        H470   1.084       .  S
O467       C1392   1.372       .  S
O467        H472   0.992       .  S
O469        H473   0.991       .  S
C475        C476   1.405       .  A
C475        C480   1.403       .  A
C475        H485   1.083       .  S
C476        C477   1.408       .  A
C476        C481   1.488       .  S
C477        C478   1.399       .  A
C477        O482   1.372       .  S
C478        C479   1.407       .  A
C478        H483   1.083       .  S
C479        C480   1.413       .  A
C480        O484   1.372       .  S
C481        C486   1.408       .  A
C481        C490   1.406       .  A
O482        H498   0.991       .  S
O484        H495   0.991       .  S
C486        C487   1.401       .  A
C486        O491   1.372       .  S
C487        C488   1.405       .  A
C487        H492   1.084       .  S
C488        C489   1.410       .  A
C489        C490   1.403       .  A
C489        O493   1.372       .  S
C490        H494   1.083       .  S
O491        H496   0.992       .  S
O493        H497   0.991       .  S
C499        C500   1.404       .  A
C499        C504   1.399       .  A
C499        H509   1.084       .  S
C500        C501   1.409       .  A
C500        C505   1.484       .  S
C501        C502   1.403       .  A
C501        O506   1.372       .  S
C502        C503   1.403       .  A
C502        H507   1.084       .  S
C503        C504   1.409       .  A
C504        O508   1.372       .  S
C505        C510   1.408       .  A
C505        C514   1.402       .  A
O506        H522   0.991       .  S
O508        H519   0.991       .  S
C510        C511   1.401       .  A
C510        O515   1.372       .  S
C511        C512   1.409       .  A
C511        H516   1.083       .  S
C512        C513   1.415       .  A
C513        C514   1.401       .  A
C513        O517   1.371       .  S
C514        H518   1.084       .  S
O515        H520   0.991       .  S
O517        H521   0.991       .  S
C523        C524   1.400       .  A
C523        C528   1.399       .  A
C523        H533   1.084       .  S
C524        C525   1.407       .  A
C524        C529   1.476       .  S
C525        C526   1.402       .  A
C525        O530   1.371       .  S
C526        C527   1.404       .  A
C526        H531   1.084       .  S
C527        C528   1.411       .  A
C528        O532   1.373       .  S
C529       C1464   1.405       .  A
C529       C1468   1.399       .  A
O530        H546   0.992       .  S
O532        H543   0.992       .  S
C534        C535   1.395   1_556  A
C534       C1459   1.407       .  A
C534       O1469   1.372       .  S
C535        C536   1.404       .  A
C535        H540   1.084       .  S
C536        C537   1.412       .  A
C537        C538   1.398       .  A
C537        O541   1.372       .  S
C538       C1459   1.401   1_554  A
C538        H542   1.084       .  S
O539       C1464   1.372       .  S
O539       H1474   0.992       .  S
O541        H545   0.993       .  S
H544       O1469   0.992       .  S
C547        C548   1.404       .  A
C547        C552   1.399       .  A
C547        H557   1.083       .  S
C548        C549   1.407       .  A
C548        C553   1.476       .  S
C549        C550   1.395       .  A
C549        O554   1.372       .  S
C550        C551   1.404       .  A
C550        H555   1.084       .  S
C551        C552   1.409       .  A
C552        O556   1.372       .  S
C553        C558   1.406       .  A
C553        C562   1.402       .  A
O554        H570   0.992       .  S
O556        H567   0.991       .  S
C558        C559   1.400       .  A
C558        O563   1.372       .  S
C559        C560   1.407       .  A
C559        H564   1.084       .  S
C560        C561   1.409       .  A
C561        C562   1.395       .  A
C561        O565   1.372       .  S
C562        H566   1.084       .  S
O563        H568   0.991       .  S
O565        H569   0.992       .  S
C571        C572   1.402       .  A
C571        C576   1.398       .  A
C571        H581   1.084       .  S
C572        C573   1.409       .  A
C572        C577   1.481       .  S
C573        C574   1.403       .  A
C573        O578   1.372       .  S
C574        C575   1.404       .  A
C574        H579   1.084       .  S
C575        C576   1.409       .  A
C576        O580   1.372       .  S
C577        C582   1.406   1_655  A
C577        C586   1.402   1_655  A
O578        H594   0.991       .  S
O580        H591   0.992       .  S
C582        C583   1.399       .  A
C582        O587   1.372   1_455  S
C583        C584   1.409       .  A
C583        H588   1.083       .  S
C584        C585   1.414       .  A
C585        C586   1.400       .  A
C585        O589   1.371       .  S
C586        H590   1.084       .  S
O587        H592   0.991       .  S
O589        H593   0.992       .  S
C595        C596   1.402       .  A
C595        C600   1.401       .  A
C595        H605   1.084       .  S
C596        C597   1.404       .  A
C596        C601   1.474       .  S
C597        C598   1.396       .  A
C597        O602   1.372       .  S
C598        C599   1.407       .  A
C598        H603   1.083       .  S
C599        C600   1.412       .  A
C600        O604   1.371       .  S
C601        C606   1.403       .  A
C601        C610   1.402       .  A
O602        H618   0.991       .  S
O604        H615   0.991       .  S
C606        C607   1.397       .  A
C606        O611   1.372       .  S
C607        C608   1.408       .  A
C607        H612   1.083       .  S
C608        C609   1.414       .  A
C609        C610   1.401       .  A
C609        O613   1.372       .  S
C610        H614   1.084       .  S
O611        H616   0.990       .  S
O613        H617   0.992       .  S
C619        C620   1.405       .  A
C619        C624   1.401       .  A
C619        H629   1.083       .  S
C620        C621   1.409       .  A
C620        C625   1.487   1_554  S
C621        C622   1.399       .  A
C621        O626   1.371       .  S
C622        C623   1.405       .  A
C622        H627   1.084       .  S
C623        C624   1.409       .  A
C624        O628   1.372       .  S
C625        C634   1.404   1_556  A
C625       C1560   1.408       .  A
O626        H642   0.993       .  S
O628        H639   0.991       .  S
C630        C631   1.402       .  A
C630       C1555   1.408       .  A
C630        O635   1.372       .  S
C631        C632   1.407       .  A
C631        H636   1.083       .  S
C632        C633   1.412       .  A
C633       C1564   1.399       .  A
C633        O637   1.372       .  S
C634       C1563   1.401   1_554  A
C634        H638   1.084       .  S
O635        H640   0.992       .  S
O637        H641   0.992       .  S
C643        C644   1.403       .  A
C643        C648   1.397       .  A
C643        H653   1.084       .  S
C644        C645   1.409       .  A
C644        C649   1.480       .  S
C645        C646   1.401       .  A
C645        O650   1.373       .  S
C646        C647   1.403       .  A
C646        H651   1.084       .  S
C647        C648   1.408       .  A
C648        O652   1.372       .  S
C649        C654   1.407       .  A
C649        C658   1.402       .  A
O650        H666   0.990       .  S
O652        H663   0.992       .  S
C654        C655   1.399       .  A
C654        O659   1.372       .  S
C655        C656   1.408       .  A
C655        H660   1.083       .  S
C656        C657   1.414       .  A
C657        C658   1.398       .  A
C657        O661   1.372       .  S
C658        H662   1.084       .  S
O659        H664   0.991       .  S
O661        H665   0.992       .  S
C667        C668   1.403       .  A
C667        C672   1.402       .  A
C667       H1607   1.083       .  S
C668        C669   1.407       .  A
C668        C673   1.477       .  S
C669        C670   1.396       .  A
C669        O674   1.372       .  S
C670        C671   1.404       .  A
C670        H675   1.084       .  S
C671        C672   1.411       .  A
C672        O676   1.371       .  S
C673       C1608   1.405       .  A
C673       C1612   1.400       .  A
O674        H690   0.992       .  S
O676        H687   0.992       .  S
H677       C1597   1.083       .  S
C678        C679   1.400       .  A
C678       C1603   1.404   1_554  A
C678        O683   1.372       .  S
C679        C680   1.410       .  A
C679        H684   1.083       .  S
C680        C681   1.414       .  A
C681        C682   1.398   1_554  A
C681        O685   1.371       .  S
C682       C1603   1.400       .  A
C682       H1616   1.084       .  S
O683        H688   0.990       .  S
O685        H689   0.992       .  S
H686       C1612   1.084       .  S
C691        C692   1.403       .  A
C691        C696   1.397       .  A
C691        H701   1.083       .  S
C692        C693   1.410       .  A
C692        C697   1.479       .  S
C693        C694   1.399       .  A
C693        O698   1.372       .  S
C694        C695   1.403       .  A
C694        H699   1.084       .  S
C695        C696   1.407       .  A
C696        O700   1.371       .  S
C697        C702   1.408       .  A
C697        C706   1.401       .  A
O698        H714   0.992       .  S
O700        H711   0.990       .  S
C702        C703   1.398       .  A
C702        O707   1.372       .  S
C703        C704   1.404       .  A
C703        H708   1.083       .  S
C704        C705   1.415       .  A
C705        C706   1.399       .  A
C705        O709   1.372       .  S
C706        H710   1.084       .  S
O707        H712   0.991       .  S
O709        H713   0.992       .  S
C715        C716   1.403       .  A
C715        C720   1.399       .  A
C715        H725   1.084       .  S
C716        C717   1.407       .  A
C716        C721   1.482       .  S
C717        C718   1.402       .  A
C717        O722   1.372       .  S
C718        C719   1.408       .  A
C718        H723   1.083       .  S
C719        C720   1.413       .  A
C720        O724   1.371       .  S
C721        C726   1.409       .  A
C721        C730   1.403       .  A
O722        H738   0.991       .  S
O724        H735   0.992       .  S
C726        C727   1.401       .  A
C726        O731   1.371       .  S
C727        C728   1.406       .  A
C727        H732   1.084       .  S
C728        C729   1.410       .  A
C729        C730   1.397       .  A
C729        O733   1.372       .  S
C730        H734   1.084       .  S
O731        H736   0.991       .  S
O733        H737   0.992       .  S
C739        C740   1.400       .  A
C739        C744   1.396       .  A
C739        H749   1.084       .  S
C740        C741   1.405       .  A
C740        C745   1.476       .  S
C741        C742   1.401       .  A
C741        O746   1.372       .  S
C742        C743   1.410       .  A
C742        H747   1.083       .  S
C743        C744   1.414       .  A
C744        O748   1.371   1_655  S
C745        C750   1.406       .  A
C745        C754   1.403       .  A
O746        H762   0.992       .  S
O748        H759   0.992       .  S
C750        C751   1.394       .  A
C750        O755   1.372       .  S
C751        C752   1.403       .  A
C751        H756   1.084       .  S
C752        C753   1.410       .  A
C753        C754   1.403       .  A
C753        O757   1.372       .  S
C754        H758   1.083       .  S
O755        H760   0.991       .  S
O757        H761   0.990       .  S
C763        C764   1.403       .  A
C763        C768   1.400       .  A
C763        H773   1.083       .  S
C764        C765   1.408       .  A
C764        C769   1.481   1_554  S
C765        C766   1.399       .  A
C765        O770   1.372       .  S
C766        C767   1.407       .  A
C766        H771   1.084       .  S
C767        C768   1.410       .  A
C768        O772   1.372       .  S
C769        C778   1.402   1_556  A
C769       C1704   1.407       .  A
O770        H786   0.991       .  S
O772        H783   0.991       .  S
C774        C775   1.399       .  A
C774       C1699   1.405       .  A
C774        O779   1.372       .  S
C775        C776   1.407       .  A
C775        H780   1.083       .  S
C776        C777   1.413       .  A
C777       C1708   1.398       .  A
C777        O781   1.372   1_655  S
C778       C1707   1.398   1_554  A
C778        H782   1.084       .  S
O779        H784   0.991       .  S
O781        H785   0.993   1_455  S
C787        C788   1.401       .  A
C787        C792   1.400       .  A
C787        H797   1.084       .  S
C788        C789   1.406       .  A
C788        C793   1.479       .  S
C789        C790   1.399       .  A
C789        O794   1.372       .  S
C790        C791   1.408   1_565  A
C790        H795   1.083       .  S
C791        C792   1.416   1_545  A
C792        O796   1.372       .  S
C793        C798   1.408       .  A
C793        C802   1.402       .  A
O794        H810   0.993       .  S
O796        H807   0.992   1_565  S
C798        C799   1.401       .  A
C798        O803   1.372       .  S
C799        C800   1.404       .  A
C799        H804   1.084       .  S
C800        C801   1.410       .  A
C801        C802   1.399       .  A
C801        O805   1.372       .  S
C802        H806   1.084       .  S
O803        H808   0.991       .  S
O805        H809   0.992       .  S
C811        C816   1.402       .  A
C811       C1742   1.408       .  A
C811        H821   1.083       .  S
C812       C1741   1.402       .  A
C812       C1743   1.408       .  A
C812        C817   1.481       .  S
C813        C814   1.397       .  A
C813       C1742   1.413       .  A
C813       O1748   1.372   1_554  S
C814        C815   1.400       .  A
C814        H819   1.084       .  S
C815        C816   1.405       .  A
C816        O820   1.371       .  S
C817        C822   1.409       .  A
C817        C826   1.403       .  A
O818       C1743   1.372       .  S
O818        H834   0.992       .  S
O820        H831   0.992       .  S
C822        C823   1.402       .  A
C822        O827   1.371       .  S
C823        C824   1.403       .  A
C823        H828   1.084       .  S
C824        C825   1.406       .  A
C825        C826   1.397       .  A
C825        O829   1.372       .  S
C826        H830   1.084       .  S
O827        H832   0.992       .  S
O829        H833   0.992       .  S
C835        C836   1.402       .  A
C835        C840   1.399       .  A
C835        H845   1.084       .  S
C836        C837   1.408       .  A
C836        C841   1.479       .  S
C837        C838   1.400       .  A
C837        O842   1.372       .  S
C838        C839   1.404       .  A
C838        H843   1.084       .  S
C839        C840   1.410       .  A
C840        O844   1.373       .  S
C841        C846   1.408       .  A
C841        C850   1.402       .  A
O842        H858   0.991       .  S
O844        H855   0.991       .  S
C846        C847   1.398       .  A
C846        O851   1.372       .  S
C847        C848   1.404       .  A
C847        H852   1.084       .  S
C848        C849   1.413       .  A
C849        C850   1.400       .  A
C849        O853   1.372       .  S
C850        H854   1.084       .  S
O851        H856   0.993       .  S
O853        H857   0.993       .  S
C859        C860   1.403       .  A
C859        C864   1.399       .  A
C859        H869   1.084       .  S
C860        C861   1.408       .  A
C860        C865   1.483       .  S
C861        C862   1.402       .  A
C861        O866   1.372       .  S
C862        C863   1.404       .  A
C862        H867   1.084       .  S
C863        C864   1.410       .  A
C864        O868   1.372       .  S
C865        C870   1.407       .  A
C865        C874   1.401       .  A
O866        H882   0.991       .  S
O868        H879   0.992       .  S
C870        C871   1.401       .  A
C870        O875   1.372       .  S
C871        C872   1.409       .  A
C871        H876   1.083       .  S
C872        C873   1.415       .  A
C873        C874   1.400       .  A
C873        O877   1.371       .  S
C874        H878   1.084       .  S
O875        H880   0.991       .  S
O877        H881   0.992       .  S
C883        C884   1.403       .  A
C883        C888   1.397       .  A
C883        H893   1.084       .  S
C884        C885   1.409       .  A
C884        C889   1.479       .  S
C885        C886   1.400       .  A
C885        O890   1.373       .  S
C886        C887   1.403       .  A
C886        H891   1.084       .  S
C887        C888   1.409       .  A
C888        O892   1.372       .  S
C889        C894   1.407       .  A
C889        C898   1.402       .  A
O890        H906   0.992       .  S
O892        H903   0.990       .  S
C894        C895   1.398       .  A
C894        O899   1.371       .  S
C895        C896   1.407       .  A
C895        H900   1.083       .  S
C896        C897   1.413       .  A
C897        C898   1.398       .  A
C897        O901   1.372       .  S
C898        H902   1.084       .  S
O899        H904   0.990       .  S
O901        H905   0.992       .  S
C907        C908   1.404       .  A
C907        C912   1.395       .  A
C907        H917   1.084       .  S
C908        C909   1.410       .  A
C908        C913   1.482       .  S
C909        C910   1.401       .  A
C909        O914   1.372       .  S
C910        C911   1.403       .  A
C910        H915   1.084       .  S
C911        C912   1.405       .  A
C912        O916   1.372       .  S
C913        C922   1.403       .  A
C913       C1848   1.407   1_554  A
O914        H930   0.991       .  S
O916        H927   0.992       .  S
C918        C919   1.399       .  A
C918       C1843   1.408       .  A
C918        O923   1.372       .  S
C919        C920   1.408       .  A
C919        H924   1.083       .  S
C920        C921   1.414       .  A
C921       C1852   1.401       .  A
C921        O925   1.372       .  S
C922       C1851   1.401   1_554  A
C922        H926   1.083       .  S
O923        H928   0.991       .  S
O925        H929   0.992       .  S
C931        C932   1.407       .  A
C931        C936   1.404       .  A
C931       C1793   1.484       .  S
C932        C933   1.403       .  A
C932        H937   1.084       .  S
C933        C934   1.400       .  A
C933       C1841   1.477       .  S
C934        C935   1.402       .  A
C934        H938   1.084       .  S
C935        C936   1.402       .  A
C935       C1817   1.477       .  S
C936        H939   1.084       .  S
C940        C941   1.405       .  A
C940        C945   1.406       .  A
C940       C1730   1.486       .  S
C941        C942   1.402       .  A
C941        H946   1.084       .  S
C942        C943   1.403       .  A
C942       C1769   1.483       .  S
C943        C944   1.407       .  A
C943        H947   1.083       .  S
C944        C945   1.407       .  A
C944       C1754   1.494       .  S
C945        H948   1.082       .  S
C949        C950   1.405       .  A
C949        C954   1.407       .  A
C949       C1658   1.487       .  S
C950        C951   1.401       .  A
C950        H955   1.083       .  S
C951        C952   1.399       .  A
C951       C1697   1.477       .  S
C952        C953   1.402       .  A
C952        H956   1.084       .  S
C953        C954   1.406       .  A
C953       C1682   1.485       .  S
C954        H957   1.083       .  S
C958        C959   1.403       .  A
C958        C963   1.399       .  A
C958       C1577   1.469       .  S
C959        C960   1.404       .  A
C959        H964   1.084       .  S
C960        C961   1.402       .  A
C960       C1601   1.481       .  S
C961        C962   1.401       .  A
C961        H965   1.084       .  S
C962        C963   1.398       .  A
C962       C1625   1.472       .  S
C963        H966   1.084       .  S
C967        C968   1.405       .  A
C967        C972   1.403       .  A
C967       C1505   1.479       .  S
C968        C969   1.403       .  A
C968        H973   1.083       .  S
C969        C970   1.401       .  A
C969       C1553   1.484       .  S
C970        C971   1.403       .  A
C970        H974   1.084       .  S
C971        C972   1.404       .  A
C971       C1529   1.483       .  S
C972        H975   1.083       .  S
C976        C977   1.403       .  A
C976        C981   1.406       .  A
C976       C1433   1.477       .  S
C977        C978   1.398       .  A
C977        H982   1.084       .  S
C978        C979   1.397       .  A
C978       C1457   1.468       .  S
C979        C980   1.401       .  A
C979        H983   1.084       .  S
C980        C981   1.403       .  A
C980       C1481   1.480       .  S
C981        H984   1.083       .  S
O985       C1001   1.274       .  A
O985       Zn991   2.008       .  S
C986       C1706   1.481       .  S
C986       O1002   1.275       .  A
C986        O999   1.273   1_655  A
O987       C1000   1.275       .  A
O987       Cd994   2.075   1_655  S
O988       C1006   1.274       .  A
O988       Cd997   2.062       .  S
O989       C1003   1.275       .  A
O989       Cd993   2.076       .  S
O990       C1001   1.274   1_455  A
O990       Cd993   2.063       .  S
Zn991      O1002   2.021       .  S
Zn991      O1004   2.025       .  S
Zn991       O996   1.941   1_655  S
O992       C1003   1.273       .  A
O992       Cd997   2.054       .  S
Cd993       O995   2.075       .  S
Cd993       O996   1.999       .  S
Cd994       O998   2.071       .  S
Cd994      O1007   2.064       .  S
Cd994       O996   1.996       .  S
O995       C1005   1.276       .  A
O996       Cd997   1.992       .  S
Cd997       O999   2.060       .  S
O998       C1005   1.275       .  A
C1000      C1361   1.492       .  S
C1000      O1004   1.276       .  A
C1001      C1673   1.477       .  S
C1003      C1442   1.483       .  S
C1005      C1418   1.482       .  S
C1006      C1385   1.476       .  S
C1006      O1007   1.274       .  A
O1008      C1024   1.274       .  A
O1008     Zn1014   2.015       .  S
C1009      C1778   1.486       .  S
C1009      O1025   1.275       .  A
C1009      O1022   1.275       .  A
O1010      C1023   1.274       .  A
O1010     Cd1017   2.070       .  S
O1011      C1029   1.274       .  A
O1011     Cd1020   2.072       .  S
O1012      C1026   1.277       .  A
O1012     Cd1016   2.084       .  S
O1013      C1024   1.277       .  A
O1013     Cd1016   2.081       .  S
Zn1014     O1025   2.026       .  S
Zn1014     O1027   2.022       .  S
Zn1014     O1019   1.945       .  S
O1015      C1026   1.276       .  A
O1015     Cd1020   2.066       .  S
Cd1016     O1018   2.092       .  S
Cd1016     O1019   2.008       .  S
Cd1017     O1021   2.063       .  S
Cd1017     O1030   2.068       .  S
Cd1017     O1019   1.997       .  S
O1018      C1028   1.278       .  A
O1019     Cd1020   1.999       .  S
Cd1020     O1022   2.072       .  S
O1021      C1028   1.274       .  A
C1023      C1337   1.488       .  S
C1023      O1027   1.275       .  A
C1024      C1745   1.485       .  S
C1026      C1514   1.489       .  S
C1028      C1394   1.490       .  S
C1029      C1409   1.486       .  S
C1029      O1030   1.275       .  A
O1031      C1047   1.274       .  A
O1031     Zn1037   2.008       .  S
C1032      C1850   1.488       .  S
C1032      O1048   1.274       .  A
C1032      O1045   1.275       .  A
O1033      C1046   1.276       .  A
O1033     Cd1040   2.073       .  S
O1034      C1052   1.278       .  A
O1034     Cd1043   2.085       .  S
O1035      C1049   1.275       .  A
O1035     Cd1039   2.071       .  S
O1036      C1047   1.274       .  A
O1036     Cd1039   2.065       .  S
Zn1037     O1048   2.010       .  S
Zn1037     O1050   2.008       .  S
Zn1037     O1042   1.936       .  S
O1038      C1049   1.277       .  A
O1038     Cd1043   2.076       .  S
Cd1039     O1041   2.072       .  S
Cd1039     O1042   1.996       .  S
Cd1040     O1044   2.064       .  S
Cd1040     O1053   2.057       .  S
Cd1040     O1042   1.997       .  S
O1041      C1051   1.275       .  A
O1042     Cd1043   1.999       .  S
Cd1043     O1045   2.074       .  S
O1044      C1051   1.274       .  A
C1046      C1274   1.488       .  S
C1046      O1050   1.273       .  A
C1047      C1826   1.485       .  S
C1049      C1721   1.490       .  S
C1051      C1322   1.481       .  S
C1052      C1298   1.479       .  S
C1052      O1053   1.273       .  A
O1054      C1070   1.273       .  A
O1054     Zn1060   2.013       .  S
C1055      C1634   1.471       .  S
C1055      O1071   1.272       .  A
C1055      O1068   1.276       .  A
O1056      C1069   1.277       .  A
O1056     Cd1063   2.087       .  S
O1057      C1075   1.274       .  A
O1057     Cd1066   2.067       .  S
O1058      C1072   1.274       .  A
O1058     Cd1062   2.068   1_545  S
O1059      C1070   1.274       .  A
O1059     Cd1062   2.067       .  S
Zn1060     O1071   1.990       .  S
Zn1060     O1073   2.012       .  S
Zn1060     O1065   1.937       .  S
O1061      C1072   1.275       .  A
O1061     Cd1066   2.073   1_545  S
Cd1062     O1064   2.054       .  S
Cd1062     O1065   1.995       .  S
Cd1063     O1067   2.073       .  S
Cd1063     O1076   2.082       .  S
Cd1063     O1065   2.006       .  S
O1064      C1074   1.274       .  A
O1065     Cd1066   1.999       .  S
Cd1066     O1068   2.066       .  S
O1067      C1074   1.277       .  A
C1069      C1250   1.493       .  S
C1069      O1073   1.273       .  A
C1070      C1610   1.488       .  S
C1072      C1649   1.486       .  S
C1074      C1289   1.477   1_565  S
C1075      C1313   1.482   1_565  S
C1075      O1076   1.277       .  A
C1077      C1078   1.406       .  A
C1077      C1082   1.404       .  A
C1077      C1217   1.483       .  S
C1078      C1079   1.404       .  A
C1078      H1083   1.084       .  S
C1079      C1080   1.403       .  A
C1079      C1370   1.481       .  S
C1080      C1081   1.403       .  A
C1080      H1084   1.084       .  S
C1081      C1082   1.403       .  A
C1081      C1265   1.480       .  S
C1082      H1085   1.084       .  S
C1086      C1087   1.405       .  A
C1086      C1091   1.405       .  A
C1086      C1202   1.483       .  S
C1087      C1088   1.407       .  A
C1087      H1092   1.084       .  S
C1088      C1089   1.405       .  A
C1088      C1241   1.487       .  S
C1089      C1090   1.402       .  A
C1089      H1093   1.084       .  S
C1090      C1091   1.401       .  A
C1090      C1346   1.475       .  S
C1091      H1094   1.084       .  S
O1095      C1111   1.274       .  A
O1095     Zn1101   2.016       .  S
C1096      C1490   1.477       .  S
C1096      O1112   1.275       .  A
C1096      O1109   1.274       .  A
O1097      C1110   1.273       .  A
O1097     Cd1104   2.066       .  S
O1098      C1116   1.275       .  A
O1098     Cd1107   2.070       .  S
O1099      C1113   1.276       .  A
O1099     Cd1103   2.071       .  S
O1100      C1111   1.275       .  A
O1100     Cd1103   2.072       .  S
Zn1101     O1112   2.010       .  S
Zn1101     O1114   2.019       .  S
Zn1101     O1106   1.937       .  S
O1102      C1113   1.275       .  A
O1102     Cd1107   2.073       .  S
Cd1103     O1105   2.065       .  S
Cd1103     O1106   1.996       .  S
Cd1104     O1108   2.052       .  S
Cd1104     O1117   2.064       .  S
Cd1104     O1106   1.993       .  S
O1105      C1115   1.275       .  A
O1106     Cd1107   1.996       .  S
Cd1107     O1109   2.059       .  S
O1108      C1115   1.273       .  A
C1110      C1193   1.488       .  S
C1110      O1114   1.274       .  A
C1111      C1466   1.490       .  S
C1113      C1802   1.484       .  S
C1115      C1169   1.479       .  S
C1116      C1145   1.481       .  S
C1116      O1117   1.274       .  A
O1118      C1134   1.274       .  A
O1118     Zn1124   2.002       .  S
C1119      C1562   1.488       .  S
C1119      O1135   1.275       .  A
C1119      O1132   1.276       .  A
O1120      C1133   1.274       .  A
O1120     Cd1127   2.068       .  S
O1121      C1139   1.275       .  A
O1121     Cd1130   2.066       .  S
O1122      C1136   1.272       .  A
O1122     Cd1126   2.057       .  S
O1123      C1134   1.273       .  A
O1123     Cd1126   2.053       .  S
Zn1124     O1135   2.019       .  S
Zn1124     O1137   2.024       .  S
Zn1124     O1129   1.936       .  S
O1125      C1136   1.275       .  A
O1125     Cd1130   2.070       .  S
Cd1126     O1128   2.063       .  S
Cd1126     O1129   1.993       .  S
Cd1127     O1131   2.069       .  S
Cd1127     O1140   2.058       .  S
Cd1127     O1129   1.995       .  S
O1128      C1138   1.273       .  A
O1129     Cd1130   1.996       .  S
Cd1130     O1132   2.081       .  S
O1131      C1138   1.274       .  A
C1133      C1226   1.490       .  S
C1133      O1137   1.275       .  A
C1134      C1538   1.480       .  S
C1136      C1586   1.485       .  S
C1138      C1154   1.483       .  S
C1139      C1178   1.470       .  S
C1139      O1140   1.274       .  A
C1141      C1142   1.403       .  A
C1141      C1146   1.398       .  A
C1141      H1151   1.084       .  S
C1142      C1143   1.409       .  A
C1142      C1147   1.484       .  S
C1143      C1144   1.401       .  A
C1143      O1148   1.373       .  S
C1144      C1145   1.405       .  A
C1144      H1149   1.084       .  S
C1145      C1146   1.412       .  A
C1146      O1150   1.372       .  S
C1147      C1152   1.409       .  A
C1147      C1156   1.403       .  A
O1148      H1164   0.993       .  S
O1150      H1161   0.993       .  S
C1152      C1153   1.399       .  A
C1152      O1157   1.371       .  S
C1153      C1154   1.406       .  A
C1153      H1158   1.083       .  S
C1154      C1155   1.412       .  A
C1155      C1156   1.399       .  A
C1155      O1159   1.372       .  S
C1156      H1160   1.084       .  S
O1157      H1162   0.991       .  S
O1159      H1163   0.991       .  S
C1165      C1166   1.403       .  A
C1165      C1170   1.398       .  A
C1166      C1167   1.407       .  A
C1167      C1168   1.395       .  A
C1167      O1172   1.372       .  S
C1168      C1169   1.406       .  A
C1168      H1173   1.083       .  S
C1169      C1170   1.412       .  A
C1170      O1174   1.372       .  S
C1171      C1176   1.409       .  A
C1171      C1180   1.404       .  A
O1172      H1188   0.991       .  S
O1174      H1185   0.991       .  S
C1176      C1177   1.397       .  A
C1176      O1181   1.372       .  S
C1177      C1178   1.401       .  A
C1177      H1182   1.084       .  S
C1178      C1179   1.408       .  A
C1179      C1180   1.397       .  A
C1179      O1183   1.372       .  S
O1181      H1186   0.992       .  S
O1183      H1187   0.992       .  S
C1189      C1190   1.401       .  A
C1189      C1194   1.401       .  A
C1189      H1199   1.084       .  S
C1190      C1191   1.406       .  A
C1190      C1195   1.480       .  S
C1191      C1192   1.399       .  A
C1191      O1196   1.372       .  S
C1192      C1193   1.408       .  A
C1192      H1197   1.083       .  S
C1193      C1194   1.415       .  A
C1194      O1198   1.372       .  S
C1195      C1200   1.407       .  A
C1195      C1204   1.403       .  A
O1196      H1212   0.992       .  S
O1198      H1209   0.991       .  S
C1200      C1201   1.400       .  A
C1200      O1205   1.372       .  S
C1201      C1202   1.404       .  A
C1201      H1206   1.084       .  S
C1202      C1203   1.410       .  A
C1203      C1204   1.401       .  A
C1203      O1207   1.372       .  S
C1204      H1208   1.084       .  S
O1205      H1210   0.992       .  S
O1207      H1211   0.993       .  S
C1213      C1214   1.405       .  A
C1213      C1218   1.401       .  A
C1213      H1223   1.083       .  S
C1214      C1215   1.409       .  A
C1214      C1219   1.485       .  S
C1215      C1216   1.400       .  A
C1215      O1220   1.372       .  S
C1216      C1217   1.404       .  A
C1216      H1221   1.084       .  S
C1217      C1218   1.410       .  A
C1218      O1222   1.372       .  S
C1219      C1224   1.407       .  A
C1219      C1228   1.403       .  A
O1220      H1236   0.992       .  S
O1222      H1233   0.992       .  S
C1224      C1225   1.401       .  A
C1224      O1229   1.372       .  S
C1225      C1226   1.408       .  A
C1225      H1230   1.083       .  S
C1226      C1227   1.415       .  A
C1227      C1228   1.401       .  A
C1227      O1231   1.372       .  S
C1228      H1232   1.084       .  S
O1229      H1234   0.993       .  S
O1231      H1235   0.991       .  S
C1237      C1238   1.404       .  A
C1237      C1242   1.402       .  A
C1237      H1247   1.083       .  S
C1238      C1239   1.411       .  A
C1238      C1243   1.489       .  S
C1239      C1240   1.400       .  A
C1239      O1244   1.372       .  S
C1240      C1241   1.404       .  A
C1240      H1245   1.084       .  S
C1241      C1242   1.411       .  A
C1242      O1246   1.371       .  S
C1243      C1248   1.410       .  A
C1243      C1252   1.402       .  A
O1244      H1260   0.992       .  S
O1246      H1257   0.992       .  S
C1248      C1249   1.404       .  A
C1248      O1253   1.372       .  S
C1249      C1250   1.408       .  A
C1249      H1254   1.083       .  S
C1250      C1251   1.416       .  A
C1251      C1252   1.399       .  A
C1251      O1255   1.372       .  S
C1252      H1256   1.084       .  S
O1253      H1258   0.992       .  S
O1255      H1259   0.989       .  S
C1261      C1262   1.403       .  A
C1261      C1266   1.400       .  A
C1261      H1271   1.084       .  S
C1262      C1263   1.408       .  A
C1262      C1267   1.480       .  S
C1263      C1264   1.398       .  A
C1263      O1268   1.372       .  S
C1264      C1265   1.403       .  A
C1264      H1269   1.084       .  S
C1265      C1266   1.409       .  A
C1266      O1270   1.371       .  S
C1267      C1272   1.407       .  A
C1267      C1276   1.401       .  A
O1268      H1284   0.992       .  S
O1270      H1281   0.992       .  S
C1272      C1273   1.400       .  A
C1272      O1277   1.371       .  S
C1273      C1274   1.408       .  A
C1273      H1278   1.083       .  S
C1274      C1275   1.416       .  A
C1275      C1276   1.399       .  A
C1275      O1279   1.372       .  S
C1276      H1280   1.084       .  S
O1277      H1282   0.993       .  S
O1279      H1283   0.990       .  S
C1285      C1286   1.402       .  A
C1285      C1290   1.398       .  A
C1285      H1295   1.084       .  S
C1286      C1287   1.407   1_545  A
C1287      C1288   1.400       .  A
C1287      O1292   1.372       .  S
C1288      C1289   1.404   1_565  A
C1288      H1293   1.084       .  S
C1289      C1290   1.412       .  A
C1290      O1294   1.372       .  S
C1291      C1300   1.402       .  A
O1294      H1305   0.991       .  S
C1296      O1301   1.372       .  S
C1297      C1298   1.404       .  A
C1297      H1302   1.084       .  S
C1298      C1299   1.413       .  A
C1299      C1300   1.399       .  A
C1299      O1303   1.372       .  S
C1300      H1304   1.084       .  S
O1301      H1306   0.990       .  S
O1303      H1307   0.992       .  S
C1309      C1310   1.403       .  A
C1309      C1314   1.401       .  A
C1309      H1319   1.084       .  S
C1310      C1311   1.408   1_545  A
C1310      C1315   1.482       .  S
C1311      C1312   1.399       .  A
C1311      O1316   1.372       .  S
C1312      C1313   1.404   1_565  A
C1312      H1317   1.083       .  S
C1313      C1314   1.413       .  A
C1314      O1318   1.372       .  S
C1315      C1320   1.408       .  A
C1315      C1324   1.403       .  A
O1316      H1332   0.992       .  S
O1318      H1329   0.992       .  S
C1320      C1321   1.400       .  A
C1320      O1325   1.372       .  S
C1321      C1322   1.407       .  A
C1321      H1326   1.084       .  S
C1322      C1323   1.411       .  A
C1323      C1324   1.399       .  A
C1323      O1327   1.372       .  S
C1324      H1328   1.084       .  S
O1325      H1330   0.992       .  S
O1327      H1331   0.992       .  S
C1333      C1334   1.403       .  A
C1333      C1338   1.403       .  A
C1333      H1343   1.083       .  S
C1334      C1335   1.408       .  A
C1334      C1339   1.485       .  S
C1335      C1336   1.399       .  A
C1335      O1340   1.372       .  S
C1336      C1337   1.407       .  A
C1336      H1341   1.083       .  S
C1337      C1338   1.414       .  A
C1338      O1342   1.372       .  S
C1339      C1344   1.411       .  A
C1339      C1348   1.404       .  A
O1340      H1356   0.992       .  S
O1342      H1353   0.991       .  S
C1344      C1345   1.403       .  A
C1344      O1349   1.372       .  S
C1345      C1346   1.402       .  A
C1345      H1350   1.084       .  S
C1346      C1347   1.405       .  A
C1347      C1348   1.399       .  A
C1347      O1351   1.371       .  S
C1348      H1352   1.084       .  S
O1349      H1354   0.990       .  S
O1351      H1355   0.992       .  S
C1357      C1358   1.404       .  A
C1357      C1362   1.402       .  A
C1357      H1367   1.083       .  S
C1358      C1359   1.409       .  A
C1358      C1363   1.490       .  S
C1359      C1360   1.400       .  A
C1359      O1364   1.372       .  S
C1360      C1361   1.408       .  A
C1360      H1365   1.083       .  S
C1361      C1362   1.414       .  A
C1362      O1366   1.371       .  S
C1363      C1368   1.412       .  A
C1363      C1372   1.406       .  A
O1364      H1380   0.992       .  S
O1366      H1377   0.991       .  S
C1368      C1369   1.403       .  A
C1368      O1373   1.372       .  S
C1369      C1370   1.403       .  A
C1369      H1374   1.084       .  S
C1370      C1371   1.408       .  A
C1371      C1372   1.400       .  A
C1371      O1375   1.372       .  S
C1372      H1376   1.083       .  S
O1373      H1378   0.991       .  S
O1375      H1379   0.992       .  S
C1381      C1382   1.403       .  A
C1381      C1386   1.398       .  A
C1381      H1391   1.083       .  S
C1382      C1383   1.409       .  A
C1383      C1384   1.398       .  A
C1383      O1388   1.372       .  S
C1384      C1385   1.404       .  A
C1384      H1389   1.084       .  S
C1385      C1386   1.410       .  A
C1386      O1390   1.372       .  S
C1387      C1392   1.410       .  A
C1387      C1396   1.401       .  A
O1388      H1404   0.992       .  S
O1390      H1401   0.991   1_455  S
C1392      C1393   1.404       .  A
C1393      C1394   1.407       .  A
C1393      H1398   1.083       .  S
C1394      C1395   1.415       .  A
C1395      C1396   1.399       .  A
C1395      O1399   1.372       .  S
C1396      H1400   1.084       .  S
O1397      H1402   0.991       .  S
O1399      H1403   0.991       .  S
C1405      C1406   1.405       .  A
C1405      C1410   1.401       .  A
C1405      H1415   1.083       .  S
C1406      C1407   1.409       .  A
C1406      C1411   1.488       .  S
C1407      C1408   1.398       .  A
C1407      O1412   1.372       .  S
C1408      C1409   1.406       .  A
C1408      H1413   1.083       .  S
C1409      C1410   1.413       .  A
C1410      O1414   1.372       .  S
C1411      C1416   1.409       .  A
C1411      C1420   1.405       .  A
O1412      H1428   0.992       .  S
O1414      H1425   0.991       .  S
C1416      C1417   1.402       .  A
C1416      O1421   1.372       .  S
C1417      C1418   1.405       .  A
C1417      H1422   1.084       .  S
C1418      C1419   1.410       .  A
C1419      C1420   1.400       .  A
C1419      O1423   1.372       .  S
C1420      H1424   1.083       .  S
O1421      H1426   0.992       .  S
O1423      H1427   0.991       .  S
C1429      C1430   1.402       .  A
C1429      C1434   1.396       .  A
C1429      H1439   1.084       .  S
C1430      C1431   1.407       .  A
C1430      C1435   1.476       .  S
C1431      C1432   1.399       .  A
C1431      O1436   1.372       .  S
C1432      C1433   1.404       .  A
C1432      H1437   1.084       .  S
C1433      C1434   1.409       .  A
C1434      O1438   1.372       .  S
C1435      C1440   1.405       .  A
C1435      C1444   1.402       .  A
O1436      H1452   0.991       .  S
O1438      H1449   0.992       .  S
C1440      C1441   1.397       .  A
C1440      O1445   1.372       .  S
C1441      C1442   1.408       .  A
C1441      H1446   1.083       .  S
C1442      C1443   1.412       .  A
C1443      C1444   1.398       .  A
C1443      O1447   1.371       .  S
C1444      H1448   1.084       .  S
O1445      H1450   0.991       .  S
O1447      H1451   0.991       .  S
C1453      C1454   1.402       .  A
C1453      C1458   1.395       .  A
C1453      H1463   1.084       .  S
C1454      C1455   1.408       .  A
C1454      C1459   1.474       .  S
C1455      C1456   1.398       .  A
C1455      O1460   1.372       .  S
C1456      C1457   1.401       .  A
C1456      H1461   1.084       .  S
C1457      C1458   1.406       .  A
C1458      O1462   1.372       .  S
O1460      H1476   0.991       .  S
O1462      H1473   0.992       .  S
C1464      C1465   1.401       .  A
C1465      C1466   1.409       .  A
C1465      H1470   1.083       .  S
C1466      C1467   1.416       .  A
C1467      C1468   1.399       .  A
C1467      O1471   1.371       .  S
C1468      H1472   1.084       .  S
O1471      H1475   0.993       .  S
C1477      C1478   1.404       .  A
C1477      C1482   1.399       .  A
C1477      H1487   1.083       .  S
C1478      C1479   1.407       .  A
C1478      C1483   1.478       .  S
C1479      C1480   1.395       .  A
C1479      O1484   1.372       .  S
C1480      C1481   1.405       .  A
C1480      H1485   1.084       .  S
C1481      C1482   1.409       .  A
C1482      O1486   1.372       .  S
C1483      C1488   1.406       .  A
C1483      C1492   1.403       .  A
O1484      H1500   0.991       .  S
O1486      H1497   0.991       .  S
C1488      C1489   1.399       .  A
C1488      O1493   1.372       .  S
C1489      C1490   1.405       .  A
C1489      H1494   1.084       .  S
C1490      C1491   1.411       .  A
C1491      C1492   1.396       .  A
C1491      O1495   1.372       .  S
C1492      H1496   1.084       .  S
O1493      H1498   0.991       .  S
O1495      H1499   0.992       .  S
C1501      C1502   1.402       .  A
C1501      C1506   1.398       .  A
C1501      H1511   1.084       .  S
C1502      C1503   1.409       .  A
C1502      C1507   1.480       .  S
C1503      C1504   1.402       .  A
C1503      O1508   1.372       .  S
C1504      C1505   1.404       .  A
C1504      H1509   1.084       .  S
C1505      C1506   1.409       .  A
C1506      O1510   1.372       .  S
C1507      C1512   1.406   1_655  A
C1507      C1516   1.402   1_655  A
O1508      H1524   0.991       .  S
O1510      H1521   0.993       .  S
C1512      C1513   1.399       .  A
C1512      O1517   1.372   1_455  S
C1513      C1514   1.409       .  A
C1513      H1518   1.083       .  S
C1514      C1515   1.414       .  A
C1515      C1516   1.401       .  A
C1515      O1519   1.371       .  S
C1516      H1520   1.084       .  S
O1517      H1522   0.991       .  S
O1519      H1523   0.992       .  S
C1525      C1526   1.401       .  A
C1525      C1530   1.400       .  A
C1525      H1535   1.084       .  S
C1526      C1527   1.404       .  A
C1526      C1531   1.471       .  S
C1527      C1528   1.394       .  A
C1527      O1532   1.372       .  S
C1528      C1529   1.406       .  A
C1528      H1533   1.083       .  S
C1529      C1530   1.412       .  A
C1530      O1534   1.371       .  S
C1531      C1536   1.403       .  A
C1531      C1540   1.400       .  A
O1532      H1548   0.991       .  S
O1534      H1545   0.991       .  S
C1536      C1537   1.396       .  A
C1536      O1541   1.372       .  S
C1537      C1538   1.407       .  A
C1537      H1542   1.083       .  S
C1538      C1539   1.414       .  A
C1539      C1540   1.398       .  A
C1539      O1543   1.372       .  S
C1540      H1544   1.084       .  S
O1541      H1546   0.990       .  S
O1543      H1547   0.993       .  S
C1549      C1550   1.404       .  A
C1549      C1554   1.400       .  A
C1549      H1559   1.083       .  S
C1550      C1551   1.409       .  A
C1550      C1555   1.484       .  S
C1551      C1552   1.399       .  A
C1551      O1556   1.371       .  S
C1552      C1553   1.406       .  A
C1552      H1557   1.084       .  S
C1553      C1554   1.410       .  A
C1554      O1558   1.372       .  S
C1555      C1564   1.403       .  A
O1556      H1572   0.992       .  S
O1558      H1569   0.991       .  S
C1560      C1561   1.402       .  A
C1560      O1565   1.373       .  S
C1561      C1562   1.408       .  A
C1561      H1566   1.083       .  S
C1562      C1563   1.412       .  A
C1563      O1567   1.371       .  S
C1564      H1568   1.084       .  S
O1565      H1570   0.992       .  S
O1567      H1571   0.991       .  S
C1573      C1574   1.404       .  A
C1573      C1578   1.397       .  A
C1573      H1583   1.084       .  S
C1574      C1575   1.408       .  A
C1574      C1579   1.477       .  S
C1575      C1576   1.398       .  A
C1575      O1580   1.373       .  S
C1576      C1577   1.400       .  A
C1576      H1581   1.084       .  S
C1577      C1578   1.407       .  A
C1578      O1582   1.372       .  S
C1579      C1584   1.406       .  A
C1579      C1588   1.401       .  A
O1580      H1596   0.990       .  S
O1582      H1593   0.992       .  S
C1584      C1585   1.397       .  A
C1584      O1589   1.372       .  S
C1585      C1586   1.407       .  A
C1585      H1590   1.083       .  S
C1586      C1587   1.416       .  A
C1587      C1588   1.398       .  A
C1587      O1591   1.372       .  S
C1588      H1592   1.084       .  S
O1589      H1594   0.990       .  S
O1591      H1595   0.992       .  S
C1597      C1598   1.403       .  A
C1597      C1602   1.402       .  A
C1598      C1599   1.405       .  A
C1598      C1603   1.475       .  S
C1599      C1600   1.395       .  A
C1599      O1604   1.372       .  S
C1600      C1601   1.404       .  A
C1600      H1605   1.084       .  S
C1601      C1602   1.410       .  A
C1602      O1606   1.371       .  S
O1604      H1620   0.992       .  S
O1606      H1617   0.992       .  S
C1608      C1609   1.401       .  A
C1608      O1613   1.372       .  S
C1609      C1610   1.410       .  A
C1609      H1614   1.083       .  S
C1610      C1611   1.414       .  A
C1611      C1612   1.398       .  A
C1611      O1615   1.371       .  S
O1613      H1618   0.991       .  S
O1615      H1619   0.992       .  S
C1621      C1622   1.400       .  A
C1621      C1626   1.394       .  A
C1621      H1631   1.084       .  S
C1622      C1623   1.407       .  A
C1622      C1627   1.469       .  S
C1623      C1624   1.397       .  A
C1623      O1628   1.372       .  S
C1624      C1625   1.403       .  A
C1624      H1629   1.084       .  S
C1625      C1626   1.408       .  A
C1626      O1630   1.372       .  S
C1627      C1632   1.406       .  A
C1627      C1636   1.400       .  A
O1628      H1644   0.992       .  S
O1630      H1641   0.990       .  S
C1632      C1633   1.394       .  A
C1632      O1637   1.372       .  S
C1633      C1634   1.402       .  A
C1633      H1638   1.084       .  S
C1634      C1635   1.412       .  A
C1635      C1636   1.397       .  A
C1635      O1639   1.372       .  S
C1636      H1640   1.084       .  S
O1637      H1642   0.991       .  S
O1639      H1643   0.992       .  S
C1645      C1646   1.402       .  A
C1645      C1650   1.400       .  A
C1645      H1655   1.084       .  S
C1646      C1647   1.407       .  A
C1646      C1651   1.480       .  S
C1647      C1648   1.401       .  A
C1647      O1652   1.372       .  S
C1648      C1649   1.407       .  A
C1648      H1653   1.083       .  S
C1649      C1650   1.413       .  A
C1650      O1654   1.372       .  S
C1651      C1656   1.407       .  A
C1651      C1660   1.402       .  A
O1652      H1668   0.992       .  S
O1654      H1665   0.992       .  S
C1656      C1657   1.400       .  A
C1656      O1661   1.371       .  S
C1657      C1658   1.408       .  A
C1657      H1662   1.083       .  S
C1658      C1659   1.412       .  A
C1659      C1660   1.399       .  A
C1659      O1663   1.371       .  S
C1660      H1664   1.084       .  S
O1661      H1666   0.991       .  S
O1663      H1667   0.992       .  S
C1669      C1670   1.402       .  A
C1669      C1674   1.397       .  A
C1669      H1679   1.084       .  S
C1670      C1671   1.406       .  A
C1670      C1675   1.477       .  S
C1671      C1672   1.400       .  A
C1671      O1676   1.373       .  S
C1672      C1673   1.406       .  A
C1672      H1677   1.084       .  S
C1673      C1674   1.410       .  A
C1674      O1678   1.372   1_655  S
C1675      C1680   1.407       .  A
C1675      C1684   1.402       .  A
O1676      H1692   0.991       .  S
O1678      H1689   0.992       .  S
C1680      C1681   1.399       .  A
C1680      O1685   1.372       .  S
C1681      C1682   1.405       .  A
C1681      H1686   1.083       .  S
C1682      C1683   1.412       .  A
C1683      C1684   1.398       .  A
C1683      O1687   1.372       .  S
C1684      H1688   1.084       .  S
O1685      H1690   0.992       .  S
O1687      H1691   0.990       .  S
C1693      C1694   1.403       .  A
C1693      C1698   1.398       .  A
C1693      H1703   1.084       .  S
C1694      C1695   1.407       .  A
C1694      C1699   1.477       .  S
C1695      C1696   1.399       .  A
C1695      O1700   1.371       .  S
C1696      C1697   1.404       .  A
C1696      H1701   1.084       .  S
C1697      C1698   1.408       .  A
C1698      O1702   1.372       .  S
C1699      C1708   1.402       .  A
O1700      H1716   0.991       .  S
O1702      H1713   0.990       .  S
C1704      C1705   1.401       .  A
C1704      O1709   1.372       .  S
C1705      C1706   1.406       .  A
C1705      H1710   1.084       .  S
C1706      C1707   1.412       .  A
C1707      O1711   1.372   1_655  S
C1708      H1712   1.084       .  S
O1709      H1714   0.991       .  S
O1711      H1715   0.993   1_455  S
C1717      C1718   1.403       .  A
C1717      C1722   1.402       .  A
C1717      H1727   1.083       .  S
C1718      C1719   1.407       .  A
C1718      C1723   1.485       .  S
C1719      C1720   1.398       .  A
C1719      O1724   1.372       .  S
C1720      C1721   1.407   1_565  A
C1720      H1725   1.083   1_565  S
C1721      C1722   1.415   1_545  A
C1722      O1726   1.372       .  S
C1723      C1728   1.408       .  A
C1723      C1732   1.403       .  A
O1724      H1740   0.993       .  S
O1726      H1737   0.991   1_565  S
C1728      C1729   1.402       .  A
C1728      O1733   1.372       .  S
C1729      C1730   1.405       .  A
C1729      H1734   1.083       .  S
C1730      C1731   1.411       .  A
C1731      C1732   1.401       .  A
C1731      O1735   1.372       .  S
C1732      H1736   1.084       .  S
O1733      H1738   0.991       .  S
O1735      H1739   0.992       .  S
C1741      C1746   1.402       .  A
C1741      H1751   1.084       .  S
C1742      C1747   1.489   1_554  S
C1743      C1744   1.399       .  A
C1744      C1745   1.405       .  A
C1744      H1749   1.083       .  S
C1745      C1746   1.414       .  A
C1746      O1750   1.372       .  S
C1747      C1752   1.410       .  A
C1747      C1756   1.404       .  A
O1748      H1764   0.992       .  S
O1750      H1761   0.992       .  S
C1752      C1753   1.400       .  A
C1752      O1757   1.372       .  S
C1753      C1754   1.408       .  A
C1753      H1758   1.083       .  S
C1754      C1755   1.414       .  A
C1755      C1756   1.400       .  A
C1755      O1759   1.371       .  S
C1756      H1760   1.083       .  S
O1757      H1762   0.992       .  S
O1759      H1763   0.992       .  S
C1765      C1766   1.404       .  A
C1765      C1770   1.401       .  A
C1765      H1775   1.083       .  S
C1766      C1767   1.409       .  A
C1766      C1771   1.484       .  S
C1767      C1768   1.401       .  A
C1767      O1772   1.371       .  S
C1768      C1769   1.404       .  A
C1768      H1773   1.084       .  S
C1769      C1770   1.409       .  A
C1770      O1774   1.373       .  S
C1771      C1776   1.407       .  A
C1771      C1780   1.403       .  A
O1772      H1788   0.991       .  S
O1774      H1785   0.991       .  S
C1776      C1777   1.400       .  A
C1776      O1781   1.372       .  S
C1777      C1778   1.406       .  A
C1777      H1782   1.083       .  S
C1778      C1779   1.413       .  A
C1779      C1780   1.403       .  A
C1779      O1783   1.371       .  S
C1780      H1784   1.084       .  S
O1781      H1786   0.992       .  S
O1783      H1787   0.992       .  S
C1789      C1790   1.401       .  A
C1789      C1794   1.400       .  A
C1789      H1799   1.084       .  S
C1790      C1791   1.405       .  A
C1790      C1795   1.476       .  S
C1791      C1792   1.400       .  A
C1791      O1796   1.372       .  S
C1792      C1793   1.406       .  A
C1792      H1797   1.084       .  S
C1793      C1794   1.411       .  A
C1794      O1798   1.372       .  S
C1795      C1800   1.406       .  A
C1795      C1804   1.400       .  A
O1796      H1812   0.991       .  S
O1798      H1809   0.992       .  S
C1800      C1801   1.401       .  A
C1800      O1805   1.372       .  S
C1801      C1802   1.408       .  A
C1801      H1806   1.083       .  S
C1802      C1803   1.413       .  A
C1803      C1804   1.398       .  A
C1803      O1807   1.371       .  S
C1804      H1808   1.084       .  S
O1805      H1810   0.991       .  S
O1807      H1811   0.992       .  S
C1813      C1814   1.404       .  A
C1813      C1818   1.397       .  A
C1813      H1823   1.084       .  S
C1814      C1815   1.410       .  A
C1814      C1819   1.481       .  S
C1815      C1816   1.400       .  A
C1815      O1820   1.373       .  S
C1816      C1817   1.403       .  A
C1816      H1821   1.084       .  S
C1817      C1818   1.407       .  A
C1818      O1822   1.372       .  S
C1819      C1824   1.407       .  A
C1819      C1828   1.403       .  A
O1820      H1836   0.992       .  S
O1822      H1833   0.990       .  S
C1824      C1825   1.398       .  A
C1824      O1829   1.372       .  S
C1825      C1826   1.408       .  A
C1825      H1830   1.083       .  S
C1826      C1827   1.413       .  A
C1827      C1828   1.398       .  A
C1827      O1831   1.372       .  S
C1828      H1832   1.084       .  S
O1829      H1834   0.990       .  S
O1831      H1835   0.992       .  S
C1837      C1838   1.406       .  A
C1837      C1842   1.397       .  A
C1837      H1847   1.083       .  S
C1838      C1839   1.411       .  A
C1838      C1843   1.487       .  S
C1839      C1840   1.402       .  A
C1839      O1844   1.371       .  S
C1840      C1841   1.403       .  A
C1840      H1845   1.084       .  S
C1841      C1842   1.406       .  A
C1842      O1846   1.372       .  S
C1843      C1852   1.404       .  A
O1844      H1860   0.991       .  S
O1846      H1857   0.992       .  S
C1848      C1849   1.397       .  A
C1848      O1853   1.372       .  S
C1849      C1850   1.408       .  A
C1849      H1854   1.083       .  S
C1850      C1851   1.414       .  A
C1851      O1855   1.372       .  S
C1852      H1856   1.083       .  S
O1853      H1858   0.991       .  S
O1855      H1859   0.992       .  S
